* NGSPICE file created from hgu_vgen_vref.ext - technology: sky130A

*.subckt sky130_fd_sc_hd__inv_1 A VGND VPWR Y VNB VPB
X0 Y A VGND VNB sky130_fd_pr__nfet_01v8 ad=0.169 pd=1.82 as=0.169 ps=1.82 w=0.65 l=0.15
X1 Y A VPWR VPB sky130_fd_pr__pfet_01v8_hvt ad=0.26 pd=2.52 as=0.26 ps=2.52 w=1 l=0.15
C0 Y VGND 0.0998f
C1 VGND A 0.04f
C2 VPB Y 0.0177f
C3 VPB A 0.0451f
C4 VGND VPWR 0.0338f
C5 Y A 0.0476f
C6 VPB VPWR 0.0545f
C7 Y VPWR 0.128f
C8 A VPWR 0.037f
C9 VPB VGND 0.00948f
C10 VGND VNB 0.251f
C11 Y VNB 0.0961f
C12 VPWR VNB 0.219f
C13 A VNB 0.167f
C14 VPB VNB 0.339f
.ends

.subckt pfet_01v8_w500_l500_nf2 a_n29_0# a_129_0# a_n129_n26# w_n224_n36# a_n187_0#
+ a_29_n26# VSUBS
X0 a_129_0# a_29_n26# a_n29_0# w_n224_n36# sky130_fd_pr__pfet_01v8 ad=0.145 pd=1.58 as=0.0725 ps=0.79 w=0.5 l=0.5
X1 a_n29_0# a_n129_n26# a_n187_0# w_n224_n36# sky130_fd_pr__pfet_01v8 ad=0.0725 pd=0.79 as=0.145 ps=1.58 w=0.5 l=0.5
C0 a_n187_0# a_n29_0# 0.0184f
C1 a_n29_0# a_n129_n26# 0.00388f
C2 a_n29_0# a_129_0# 0.0184f
C3 w_n224_n36# a_n187_0# 0.00201f
C4 w_n224_n36# a_n129_n26# 0.0302f
C5 a_n29_0# a_29_n26# 0.00388f
C6 a_n187_0# a_n129_n26# 0.00388f
C7 w_n224_n36# a_129_0# 0.002f
C8 w_n224_n36# a_29_n26# 0.0301f
C9 a_n129_n26# a_29_n26# 0.0143f
C10 a_29_n26# a_129_0# 0.00388f
C11 w_n224_n36# a_n29_0# 0.00149f
C12 a_129_0# VSUBS 0.0383f
C13 a_n29_0# VSUBS 0.0212f
C14 a_n187_0# VSUBS 0.0382f
C15 a_29_n26# VSUBS 0.114f
C16 a_n129_n26# VSUBS 0.114f
C17 w_n224_n36# VSUBS 0.233f
.ends

.subckt sky130_fd_sc_hd__buf_4 A VGND VPWR X VNB VPB a_27_47#
X0 VPWR a_27_47# X VPB sky130_fd_pr__pfet_01v8_hvt ad=0.26 pd=2.52 as=0.135 ps=1.27 w=1 l=0.15
X1 X a_27_47# VPWR VPB sky130_fd_pr__pfet_01v8_hvt ad=0.135 pd=1.27 as=0.135 ps=1.27 w=1 l=0.15
X2 VPWR a_27_47# X VPB sky130_fd_pr__pfet_01v8_hvt ad=0.135 pd=1.27 as=0.135 ps=1.27 w=1 l=0.15
X3 X a_27_47# VPWR VPB sky130_fd_pr__pfet_01v8_hvt ad=0.135 pd=1.27 as=0.135 ps=1.27 w=1 l=0.15
X4 X a_27_47# VGND VNB sky130_fd_pr__nfet_01v8 ad=0.0878 pd=0.92 as=0.0878 ps=0.92 w=0.65 l=0.15
X5 X a_27_47# VGND VNB sky130_fd_pr__nfet_01v8 ad=0.0878 pd=0.92 as=0.0878 ps=0.92 w=0.65 l=0.15
X6 VGND a_27_47# X VNB sky130_fd_pr__nfet_01v8 ad=0.0878 pd=0.92 as=0.0878 ps=0.92 w=0.65 l=0.15
X7 VGND a_27_47# X VNB sky130_fd_pr__nfet_01v8 ad=0.169 pd=1.82 as=0.0878 ps=0.92 w=0.65 l=0.15
X8 VPWR A a_27_47# VPB sky130_fd_pr__pfet_01v8_hvt ad=0.135 pd=1.27 as=0.26 ps=2.52 w=1 l=0.15
X9 VGND A a_27_47# VNB sky130_fd_pr__nfet_01v8 ad=0.0878 pd=0.92 as=0.169 ps=1.82 w=0.65 l=0.15
C0 A VPWR 0.016f
C1 VPWR VGND 0.072f
C2 VPWR X 0.333f
C3 VPWR VPB 0.0711f
C4 A VGND 0.0194f
C5 VPWR a_27_47# 0.218f
C6 A X 4.66e-19
C7 VGND X 0.23f
C8 A VPB 0.0361f
C9 VGND VPB 0.00796f
C10 A a_27_47# 0.17f
C11 a_27_47# VGND 0.163f
C12 VPB X 0.00899f
C13 a_27_47# X 0.207f
C14 a_27_47# VPB 0.132f
C15 VGND VNB 0.378f
C16 X VNB 0.039f
C17 VPWR VNB 0.325f
C18 A VNB 0.14f
C19 VPB VNB 0.605f
C20 a_27_47# VNB 0.461f
.ends

.subckt sky130_fd_sc_hd__dlymetal6s6s_1 A VGND VPWR X a_240_47# VNB VPB a_629_47#
+ a_523_47# a_346_47# a_63_47#
X0 X a_629_47# VGND VNB sky130_fd_pr__nfet_01v8 ad=0.169 pd=1.82 as=0.097 ps=0.975 w=0.65 l=0.15
X1 a_523_47# a_346_47# VGND VNB sky130_fd_pr__nfet_01v8 ad=0.169 pd=1.82 as=0.097 ps=0.975 w=0.65 l=0.15
X2 VGND a_240_47# a_346_47# VNB sky130_fd_pr__nfet_01v8 ad=0.097 pd=0.975 as=0.109 ps=1.36 w=0.42 l=0.15
X3 a_240_47# a_63_47# VGND VNB sky130_fd_pr__nfet_01v8 ad=0.169 pd=1.82 as=0.097 ps=0.975 w=0.65 l=0.15
X4 VPWR a_240_47# a_346_47# VPB sky130_fd_pr__pfet_01v8_hvt ad=0.141 pd=1.33 as=0.109 ps=1.36 w=0.42 l=0.15
X5 VGND A a_63_47# VNB sky130_fd_pr__nfet_01v8 ad=0.097 pd=0.975 as=0.109 ps=1.36 w=0.42 l=0.15
X6 VPWR A a_63_47# VPB sky130_fd_pr__pfet_01v8_hvt ad=0.141 pd=1.33 as=0.109 ps=1.36 w=0.42 l=0.15
X7 VPWR a_523_47# a_629_47# VPB sky130_fd_pr__pfet_01v8_hvt ad=0.141 pd=1.33 as=0.109 ps=1.36 w=0.42 l=0.15
X8 VGND a_523_47# a_629_47# VNB sky130_fd_pr__nfet_01v8 ad=0.097 pd=0.975 as=0.109 ps=1.36 w=0.42 l=0.15
X9 a_523_47# a_346_47# VPWR VPB sky130_fd_pr__pfet_01v8_hvt ad=0.26 pd=2.52 as=0.141 ps=1.33 w=1 l=0.15
X10 a_240_47# a_63_47# VPWR VPB sky130_fd_pr__pfet_01v8_hvt ad=0.26 pd=2.52 as=0.141 ps=1.33 w=1 l=0.15
X11 X a_629_47# VPWR VPB sky130_fd_pr__pfet_01v8_hvt ad=0.26 pd=2.52 as=0.141 ps=1.33 w=1 l=0.15
C0 a_523_47# a_629_47# 0.322f
C1 VGND A 0.0175f
C2 a_629_47# a_240_47# 7.09e-19
C3 a_523_47# X 0.00484f
C4 a_629_47# VPWR 0.13f
C5 VGND a_346_47# 0.121f
C6 VPWR X 0.0861f
C7 VPB VGND 0.00789f
C8 a_63_47# a_240_47# 0.16f
C9 a_63_47# VPWR 0.15f
C10 a_523_47# a_240_47# 0.0145f
C11 a_523_47# VPWR 0.081f
C12 a_629_47# VPB 0.0445f
C13 VPWR a_240_47# 0.0828f
C14 VPB X 0.0189f
C15 a_63_47# A 0.245f
C16 a_63_47# VPB 0.0507f
C17 a_523_47# a_346_47# 0.16f
C18 a_240_47# A 0.0146f
C19 VPWR A 0.0174f
C20 a_240_47# a_346_47# 0.319f
C21 a_523_47# VPB 0.116f
C22 VPWR a_346_47# 0.127f
C23 VPB a_240_47# 0.116f
C24 a_629_47# VGND 0.124f
C25 VPB VPWR 0.0985f
C26 X VGND 0.0832f
C27 A a_346_47# 6.53e-19
C28 a_63_47# VGND 0.144f
C29 VPB A 0.104f
C30 VPB a_346_47# 0.0439f
C31 a_523_47# VGND 0.0787f
C32 a_629_47# X 0.136f
C33 VGND a_240_47# 0.0806f
C34 VPWR VGND 0.0902f
C35 VGND VNB 0.539f
C36 X VNB 0.1f
C37 VPWR VNB 0.446f
C38 A VNB 0.198f
C39 VPB VNB 0.959f
C40 a_629_47# VNB 0.129f
C41 a_523_47# VNB 0.162f
C42 a_346_47# VNB 0.109f
C43 a_240_47# VNB 0.153f
C44 a_63_47# VNB 0.167f
.ends

.subckt adc_noise_decoup_cell1 nmoscap_top nmoscap_bot mimcap_top mimcap_bot pwell
X0 nmoscap_top nmoscap_bot pwell sky130_fd_pr__cap_var_lvt w=16.4 l=16
X1 mimcap_top mimcap_bot sky130_fd_pr__cap_mim_m3_1 l=17.2 w=17.2
C0 mimcap_top nmoscap_bot 0.225f
C1 nmoscap_bot mimcap_bot 21.2f
C2 mimcap_top mimcap_bot 31.6f
C3 nmoscap_top nmoscap_bot 0.281p
C4 nmoscap_top mimcap_top 2.63f
C5 nmoscap_top mimcap_bot 19.2f
C6 mimcap_top pwell 2.84f
C7 mimcap_bot pwell 3.75f
C8 nmoscap_top pwell 8.6f
C9 nmoscap_bot pwell 40.7f
.ends

.subckt nfet_01v8_w500_l500_nf2 a_n129_n76# a_n29_n50# a_n187_n50# a_29_n76# a_129_n50#
+ VSUBS
X0 a_129_n50# a_29_n76# a_n29_n50# VSUBS sky130_fd_pr__nfet_01v8 ad=0.145 pd=1.58 as=0.0725 ps=0.79 w=0.5 l=0.5
X1 a_n29_n50# a_n129_n76# a_n187_n50# VSUBS sky130_fd_pr__nfet_01v8 ad=0.0725 pd=0.79 as=0.145 ps=1.58 w=0.5 l=0.5
C0 a_n29_n50# a_129_n50# 0.0184f
C1 a_n29_n50# a_n129_n76# 0.00388f
C2 a_29_n76# a_129_n50# 0.00388f
C3 a_n129_n76# a_n187_n50# 0.00388f
C4 a_n29_n50# a_n187_n50# 0.0184f
C5 a_29_n76# a_n129_n76# 0.0143f
C6 a_29_n76# a_n29_n50# 0.00388f
C7 a_129_n50# VSUBS 0.0402f
C8 a_n29_n50# VSUBS 0.0227f
C9 a_n187_n50# VSUBS 0.0402f
C10 a_29_n76# VSUBS 0.144f
C11 a_n129_n76# VSUBS 0.144f
.ends

.subckt sky130_fd_sc_hd__nand2_1 A B VGND VPWR Y VNB VPB a_113_47#
X0 VPWR A Y VPB sky130_fd_pr__pfet_01v8_hvt ad=0.26 pd=2.52 as=0.135 ps=1.27 w=1 l=0.15
X1 Y A a_113_47# VNB sky130_fd_pr__nfet_01v8 ad=0.169 pd=1.82 as=0.0878 ps=0.92 w=0.65 l=0.15
X2 a_113_47# B VGND VNB sky130_fd_pr__nfet_01v8 ad=0.0878 pd=0.92 as=0.169 ps=1.82 w=0.65 l=0.15
X3 Y B VPWR VPB sky130_fd_pr__pfet_01v8_hvt ad=0.135 pd=1.27 as=0.26 ps=2.52 w=1 l=0.15
C0 VPWR VGND 0.0322f
C1 VPWR VPB 0.0509f
C2 Y B 0.0481f
C3 Y a_113_47# 0.00937f
C4 B A 0.051f
C5 Y VGND 0.139f
C6 Y VPB 0.00618f
C7 A VGND 0.00949f
C8 A VPB 0.0379f
C9 B VGND 0.0544f
C10 B VPB 0.0391f
C11 a_113_47# VGND 0.0019f
C12 Y VPWR 0.211f
C13 A VPWR 0.0444f
C14 VPB VGND 0.0044f
C15 Y A 0.0855f
C16 B VPWR 0.0478f
C17 VPWR a_113_47# 1.78e-19
C18 VGND VNB 0.232f
C19 Y VNB 0.0557f
C20 VPWR VNB 0.245f
C21 A VNB 0.143f
C22 B VNB 0.146f
C23 VPB VNB 0.339f
.ends

.subckt hgu_vgen_vref clk vcm VSS VDD
Xsky130_fd_sc_hd__inv_1_4 clk VSS VDD sky130_fd_sc_hd__inv_1_4/Y VSS VDD sky130_fd_sc_hd__inv_1
Xpfet_01v8_w500_l500_nf2_0 mimtop2 vcm phi1_n VDD vcm phi1_n VSS pfet_01v8_w500_l500_nf2
Xpfet_01v8_w500_l500_nf2_1 mimtop1 vcm phi1_n VDD vcm phi1_n VSS pfet_01v8_w500_l500_nf2
Xsky130_fd_sc_hd__buf_4_0 sky130_fd_sc_hd__inv_1_2/A VSS VDD phi1 VSS VDD sky130_fd_sc_hd__buf_4_0/a_27_47#
+ sky130_fd_sc_hd__buf_4
Xpfet_01v8_w500_l500_nf2_2 mimtop2 mimbot1 phi2_n VDD mimbot1 phi2_n VSS pfet_01v8_w500_l500_nf2
Xsky130_fd_sc_hd__buf_4_1 sky130_fd_sc_hd__inv_1_2/Y VSS VDD phi1_n VSS VDD sky130_fd_sc_hd__buf_4_1/a_27_47#
+ sky130_fd_sc_hd__buf_4
Xpfet_01v8_w500_l500_nf2_3 VDD mimtop1 phi2_n VDD mimtop1 phi2_n VSS pfet_01v8_w500_l500_nf2
Xpfet_01v8_w500_l500_nf2_4 mimbot1 VSS phi1_n VDD VSS phi1_n VSS pfet_01v8_w500_l500_nf2
Xsky130_fd_sc_hd__buf_4_2 sky130_fd_sc_hd__inv_1_3/A VSS VDD phi2 VSS VDD sky130_fd_sc_hd__buf_4_2/a_27_47#
+ sky130_fd_sc_hd__buf_4
Xsky130_fd_sc_hd__buf_4_3 sky130_fd_sc_hd__inv_1_3/Y VSS VDD phi2_n VSS VDD sky130_fd_sc_hd__buf_4_3/a_27_47#
+ sky130_fd_sc_hd__buf_4
Xsky130_fd_sc_hd__dlymetal6s6s_1_0 sky130_fd_sc_hd__nand2_1_0/Y VSS VDD sky130_fd_sc_hd__dlymetal6s6s_1_2/A
+ sky130_fd_sc_hd__dlymetal6s6s_1_0/a_240_47# VSS VDD sky130_fd_sc_hd__dlymetal6s6s_1_0/a_629_47#
+ sky130_fd_sc_hd__dlymetal6s6s_1_0/a_523_47# sky130_fd_sc_hd__dlymetal6s6s_1_0/a_346_47#
+ sky130_fd_sc_hd__dlymetal6s6s_1_0/a_63_47# sky130_fd_sc_hd__dlymetal6s6s_1
Xsky130_fd_sc_hd__dlymetal6s6s_1_1 sky130_fd_sc_hd__nand2_1_1/Y VSS VDD sky130_fd_sc_hd__dlymetal6s6s_1_4/A
+ sky130_fd_sc_hd__dlymetal6s6s_1_1/a_240_47# VSS VDD sky130_fd_sc_hd__dlymetal6s6s_1_1/a_629_47#
+ sky130_fd_sc_hd__dlymetal6s6s_1_1/a_523_47# sky130_fd_sc_hd__dlymetal6s6s_1_1/a_346_47#
+ sky130_fd_sc_hd__dlymetal6s6s_1_1/a_63_47# sky130_fd_sc_hd__dlymetal6s6s_1
Xsky130_fd_sc_hd__dlymetal6s6s_1_2 sky130_fd_sc_hd__dlymetal6s6s_1_2/A VSS VDD sky130_fd_sc_hd__dlymetal6s6s_1_3/A
+ sky130_fd_sc_hd__dlymetal6s6s_1_2/a_240_47# VSS VDD sky130_fd_sc_hd__dlymetal6s6s_1_2/a_629_47#
+ sky130_fd_sc_hd__dlymetal6s6s_1_2/a_523_47# sky130_fd_sc_hd__dlymetal6s6s_1_2/a_346_47#
+ sky130_fd_sc_hd__dlymetal6s6s_1_2/a_63_47# sky130_fd_sc_hd__dlymetal6s6s_1
Xsky130_fd_sc_hd__dlymetal6s6s_1_3 sky130_fd_sc_hd__dlymetal6s6s_1_3/A VSS VDD sky130_fd_sc_hd__inv_1_0/A
+ sky130_fd_sc_hd__dlymetal6s6s_1_3/a_240_47# VSS VDD sky130_fd_sc_hd__dlymetal6s6s_1_3/a_629_47#
+ sky130_fd_sc_hd__dlymetal6s6s_1_3/a_523_47# sky130_fd_sc_hd__dlymetal6s6s_1_3/a_346_47#
+ sky130_fd_sc_hd__dlymetal6s6s_1_3/a_63_47# sky130_fd_sc_hd__dlymetal6s6s_1
Xsky130_fd_sc_hd__dlymetal6s6s_1_5 sky130_fd_sc_hd__dlymetal6s6s_1_5/A VSS VDD sky130_fd_sc_hd__inv_1_1/A
+ sky130_fd_sc_hd__dlymetal6s6s_1_5/a_240_47# VSS VDD sky130_fd_sc_hd__dlymetal6s6s_1_5/a_629_47#
+ sky130_fd_sc_hd__dlymetal6s6s_1_5/a_523_47# sky130_fd_sc_hd__dlymetal6s6s_1_5/a_346_47#
+ sky130_fd_sc_hd__dlymetal6s6s_1_5/a_63_47# sky130_fd_sc_hd__dlymetal6s6s_1
Xsky130_fd_sc_hd__dlymetal6s6s_1_4 sky130_fd_sc_hd__dlymetal6s6s_1_4/A VSS VDD sky130_fd_sc_hd__dlymetal6s6s_1_5/A
+ sky130_fd_sc_hd__dlymetal6s6s_1_4/a_240_47# VSS VDD sky130_fd_sc_hd__dlymetal6s6s_1_4/a_629_47#
+ sky130_fd_sc_hd__dlymetal6s6s_1_4/a_523_47# sky130_fd_sc_hd__dlymetal6s6s_1_4/a_346_47#
+ sky130_fd_sc_hd__dlymetal6s6s_1_4/a_63_47# sky130_fd_sc_hd__dlymetal6s6s_1
Xadc_noise_decoup_cell1_0[0] VDD VSS VDD VSS VSS adc_noise_decoup_cell1
Xadc_noise_decoup_cell1_0[1] VDD VSS VDD VSS VSS adc_noise_decoup_cell1
Xadc_noise_decoup_cell1_0[2] VDD VSS VDD VSS VSS adc_noise_decoup_cell1
Xadc_noise_decoup_cell1_1[0|0] vcm VSS mimtop2 VSS VSS adc_noise_decoup_cell1
Xadc_noise_decoup_cell1_1[1|0] vcm VSS mimtop2 VSS VSS adc_noise_decoup_cell1
Xadc_noise_decoup_cell1_1[2|0] vcm VSS mimtop2 VSS VSS adc_noise_decoup_cell1
Xadc_noise_decoup_cell1_1[3|0] vcm VSS mimtop2 VSS VSS adc_noise_decoup_cell1
Xadc_noise_decoup_cell1_1[4|0] vcm VSS mimtop2 VSS VSS adc_noise_decoup_cell1
Xadc_noise_decoup_cell1_1[5|0] vcm VSS mimtop2 VSS VSS adc_noise_decoup_cell1
Xadc_noise_decoup_cell1_1[6|0] vcm VSS mimtop2 VSS VSS adc_noise_decoup_cell1
Xadc_noise_decoup_cell1_1[7|0] vcm VSS mimtop2 VSS VSS adc_noise_decoup_cell1
Xadc_noise_decoup_cell1_1[0|1] vcm VSS mimtop2 VSS VSS adc_noise_decoup_cell1
Xadc_noise_decoup_cell1_1[1|1] vcm VSS mimtop2 VSS VSS adc_noise_decoup_cell1
Xadc_noise_decoup_cell1_1[2|1] vcm VSS mimtop2 VSS VSS adc_noise_decoup_cell1
Xadc_noise_decoup_cell1_1[3|1] vcm VSS mimtop2 VSS VSS adc_noise_decoup_cell1
Xadc_noise_decoup_cell1_1[4|1] vcm VSS mimtop2 VSS VSS adc_noise_decoup_cell1
Xadc_noise_decoup_cell1_1[5|1] vcm VSS mimtop2 VSS VSS adc_noise_decoup_cell1
Xadc_noise_decoup_cell1_1[6|1] vcm VSS mimtop2 VSS VSS adc_noise_decoup_cell1
Xadc_noise_decoup_cell1_1[7|1] vcm VSS mimtop2 VSS VSS adc_noise_decoup_cell1
Xadc_noise_decoup_cell1_1[0|2] vcm VSS mimtop2 VSS VSS adc_noise_decoup_cell1
Xadc_noise_decoup_cell1_1[1|2] vcm VSS mimtop2 VSS VSS adc_noise_decoup_cell1
Xadc_noise_decoup_cell1_1[2|2] vcm VSS mimtop2 VSS VSS adc_noise_decoup_cell1
Xadc_noise_decoup_cell1_1[3|2] vcm VSS mimtop2 VSS VSS adc_noise_decoup_cell1
Xadc_noise_decoup_cell1_1[4|2] vcm VSS mimtop2 VSS VSS adc_noise_decoup_cell1
Xadc_noise_decoup_cell1_1[5|2] vcm VSS mimtop2 VSS VSS adc_noise_decoup_cell1
Xadc_noise_decoup_cell1_1[6|2] vcm VSS mimtop2 VSS VSS adc_noise_decoup_cell1
Xadc_noise_decoup_cell1_1[7|2] vcm VSS mimtop2 VSS VSS adc_noise_decoup_cell1
Xadc_noise_decoup_cell1_1[0|3] vcm VSS mimtop2 VSS VSS adc_noise_decoup_cell1
Xadc_noise_decoup_cell1_1[1|3] vcm VSS mimtop2 VSS VSS adc_noise_decoup_cell1
Xadc_noise_decoup_cell1_1[2|3] vcm VSS mimtop2 VSS VSS adc_noise_decoup_cell1
Xadc_noise_decoup_cell1_1[3|3] vcm VSS mimtop2 VSS VSS adc_noise_decoup_cell1
Xadc_noise_decoup_cell1_1[4|3] vcm VSS mimtop2 VSS VSS adc_noise_decoup_cell1
Xadc_noise_decoup_cell1_1[5|3] vcm VSS mimtop2 VSS VSS adc_noise_decoup_cell1
Xadc_noise_decoup_cell1_1[6|3] vcm VSS mimtop2 VSS VSS adc_noise_decoup_cell1
Xadc_noise_decoup_cell1_1[7|3] vcm VSS mimtop2 VSS VSS adc_noise_decoup_cell1
Xadc_noise_decoup_cell1_1[0|4] vcm VSS mimtop2 VSS VSS adc_noise_decoup_cell1
Xadc_noise_decoup_cell1_1[1|4] vcm VSS mimtop2 VSS VSS adc_noise_decoup_cell1
Xadc_noise_decoup_cell1_1[2|4] vcm VSS mimtop2 VSS VSS adc_noise_decoup_cell1
Xadc_noise_decoup_cell1_1[3|4] vcm VSS mimtop2 VSS VSS adc_noise_decoup_cell1
Xadc_noise_decoup_cell1_1[4|4] vcm VSS mimtop2 VSS VSS adc_noise_decoup_cell1
Xadc_noise_decoup_cell1_1[5|4] vcm VSS mimtop2 VSS VSS adc_noise_decoup_cell1
Xadc_noise_decoup_cell1_1[6|4] vcm VSS mimtop2 VSS VSS adc_noise_decoup_cell1
Xadc_noise_decoup_cell1_1[7|4] vcm VSS mimtop2 VSS VSS adc_noise_decoup_cell1
Xadc_noise_decoup_cell1_3[0|0] vcm VSS mimtop1 mimbot1 VSS adc_noise_decoup_cell1
Xadc_noise_decoup_cell1_3[1|0] vcm VSS mimtop1 mimbot1 VSS adc_noise_decoup_cell1
Xadc_noise_decoup_cell1_3[2|0] vcm VSS mimtop1 mimbot1 VSS adc_noise_decoup_cell1
Xadc_noise_decoup_cell1_3[3|0] vcm VSS mimtop1 mimbot1 VSS adc_noise_decoup_cell1
Xadc_noise_decoup_cell1_3[4|0] vcm VSS mimtop1 mimbot1 VSS adc_noise_decoup_cell1
Xadc_noise_decoup_cell1_3[5|0] vcm VSS mimtop1 mimbot1 VSS adc_noise_decoup_cell1
Xadc_noise_decoup_cell1_3[6|0] vcm VSS mimtop1 mimbot1 VSS adc_noise_decoup_cell1
Xadc_noise_decoup_cell1_3[7|0] vcm VSS mimtop1 mimbot1 VSS adc_noise_decoup_cell1
Xadc_noise_decoup_cell1_3[0|1] vcm VSS mimtop1 mimbot1 VSS adc_noise_decoup_cell1
Xadc_noise_decoup_cell1_3[1|1] vcm VSS mimtop1 mimbot1 VSS adc_noise_decoup_cell1
Xadc_noise_decoup_cell1_3[2|1] vcm VSS mimtop1 mimbot1 VSS adc_noise_decoup_cell1
Xadc_noise_decoup_cell1_3[3|1] vcm VSS mimtop1 mimbot1 VSS adc_noise_decoup_cell1
Xadc_noise_decoup_cell1_3[4|1] vcm VSS mimtop1 mimbot1 VSS adc_noise_decoup_cell1
Xadc_noise_decoup_cell1_3[5|1] vcm VSS mimtop1 mimbot1 VSS adc_noise_decoup_cell1
Xadc_noise_decoup_cell1_3[6|1] vcm VSS mimtop1 mimbot1 VSS adc_noise_decoup_cell1
Xadc_noise_decoup_cell1_3[7|1] vcm VSS mimtop1 mimbot1 VSS adc_noise_decoup_cell1
Xadc_noise_decoup_cell1_3[0|2] vcm VSS mimtop1 mimbot1 VSS adc_noise_decoup_cell1
Xadc_noise_decoup_cell1_3[1|2] vcm VSS mimtop1 mimbot1 VSS adc_noise_decoup_cell1
Xadc_noise_decoup_cell1_3[2|2] vcm VSS mimtop1 mimbot1 VSS adc_noise_decoup_cell1
Xadc_noise_decoup_cell1_3[3|2] vcm VSS mimtop1 mimbot1 VSS adc_noise_decoup_cell1
Xadc_noise_decoup_cell1_3[4|2] vcm VSS mimtop1 mimbot1 VSS adc_noise_decoup_cell1
Xadc_noise_decoup_cell1_3[5|2] vcm VSS mimtop1 mimbot1 VSS adc_noise_decoup_cell1
Xadc_noise_decoup_cell1_3[6|2] vcm VSS mimtop1 mimbot1 VSS adc_noise_decoup_cell1
Xadc_noise_decoup_cell1_3[7|2] vcm VSS mimtop1 mimbot1 VSS adc_noise_decoup_cell1
Xadc_noise_decoup_cell1_3[0|3] vcm VSS mimtop1 mimbot1 VSS adc_noise_decoup_cell1
Xadc_noise_decoup_cell1_3[1|3] vcm VSS mimtop1 mimbot1 VSS adc_noise_decoup_cell1
Xadc_noise_decoup_cell1_3[2|3] vcm VSS mimtop1 mimbot1 VSS adc_noise_decoup_cell1
Xadc_noise_decoup_cell1_3[3|3] vcm VSS mimtop1 mimbot1 VSS adc_noise_decoup_cell1
Xadc_noise_decoup_cell1_3[4|3] vcm VSS mimtop1 mimbot1 VSS adc_noise_decoup_cell1
Xadc_noise_decoup_cell1_3[5|3] vcm VSS mimtop1 mimbot1 VSS adc_noise_decoup_cell1
Xadc_noise_decoup_cell1_3[6|3] vcm VSS mimtop1 mimbot1 VSS adc_noise_decoup_cell1
Xadc_noise_decoup_cell1_3[7|3] vcm VSS mimtop1 mimbot1 VSS adc_noise_decoup_cell1
Xadc_noise_decoup_cell1_3[0|4] vcm VSS mimtop1 mimbot1 VSS adc_noise_decoup_cell1
Xadc_noise_decoup_cell1_3[1|4] vcm VSS mimtop1 mimbot1 VSS adc_noise_decoup_cell1
Xadc_noise_decoup_cell1_3[2|4] vcm VSS mimtop1 mimbot1 VSS adc_noise_decoup_cell1
Xadc_noise_decoup_cell1_3[3|4] vcm VSS mimtop1 mimbot1 VSS adc_noise_decoup_cell1
Xadc_noise_decoup_cell1_3[4|4] vcm VSS mimtop1 mimbot1 VSS adc_noise_decoup_cell1
Xadc_noise_decoup_cell1_3[5|4] vcm VSS mimtop1 mimbot1 VSS adc_noise_decoup_cell1
Xadc_noise_decoup_cell1_3[6|4] vcm VSS mimtop1 mimbot1 VSS adc_noise_decoup_cell1
Xadc_noise_decoup_cell1_3[7|4] vcm VSS mimtop1 mimbot1 VSS adc_noise_decoup_cell1
Xnfet_01v8_w500_l500_nf2_0 phi1 mimtop2 vcm phi1 vcm VSS nfet_01v8_w500_l500_nf2
Xnfet_01v8_w500_l500_nf2_1 phi1 mimtop1 vcm phi1 vcm VSS nfet_01v8_w500_l500_nf2
Xsky130_fd_sc_hd__nand2_1_0 clk sky130_fd_sc_hd__inv_1_3/Y VSS VDD sky130_fd_sc_hd__nand2_1_0/Y
+ VSS VDD sky130_fd_sc_hd__nand2_1_0/a_113_47# sky130_fd_sc_hd__nand2_1
Xnfet_01v8_w500_l500_nf2_2 phi2 mimtop2 mimbot1 phi2 mimbot1 VSS nfet_01v8_w500_l500_nf2
Xnfet_01v8_w500_l500_nf2_3 phi2 VDD mimtop1 phi2 mimtop1 VSS nfet_01v8_w500_l500_nf2
Xsky130_fd_sc_hd__nand2_1_1 sky130_fd_sc_hd__inv_1_2/Y sky130_fd_sc_hd__inv_1_4/Y
+ VSS VDD sky130_fd_sc_hd__nand2_1_1/Y VSS VDD sky130_fd_sc_hd__nand2_1_1/a_113_47#
+ sky130_fd_sc_hd__nand2_1
Xnfet_01v8_w500_l500_nf2_4 phi1 mimbot1 VSS phi1 VSS VSS nfet_01v8_w500_l500_nf2
Xsky130_fd_sc_hd__inv_1_0 sky130_fd_sc_hd__inv_1_0/A VSS VDD sky130_fd_sc_hd__inv_1_2/A
+ VSS VDD sky130_fd_sc_hd__inv_1
Xsky130_fd_sc_hd__inv_1_1 sky130_fd_sc_hd__inv_1_1/A VSS VDD sky130_fd_sc_hd__inv_1_3/A
+ VSS VDD sky130_fd_sc_hd__inv_1
Xsky130_fd_sc_hd__inv_1_2 sky130_fd_sc_hd__inv_1_2/A VSS VDD sky130_fd_sc_hd__inv_1_2/Y
+ VSS VDD sky130_fd_sc_hd__inv_1
Xsky130_fd_sc_hd__inv_1_3 sky130_fd_sc_hd__inv_1_3/A VSS VDD sky130_fd_sc_hd__inv_1_3/Y
+ VSS VDD sky130_fd_sc_hd__inv_1
X0 VDD.t5 VSS sky130_fd_pr__cap_mim_m3_1 l=0 w=0
X1 vcm.t0 VSS.t1 error sky130_fd_pr__cap_var_lvt w=0 l=0
X2 vcm.t62 VSS error sky130_fd_pr__cap_var_lvt w=0 l=0
X3 vcm.t67 VSS error sky130_fd_pr__cap_var_lvt w=0 l=0
X4 vcm.t78 VSS error sky130_fd_pr__cap_var_lvt w=0 l=0
X5 mimtop2 VSS.t0 sky130_fd_pr__cap_mim_m3_1 l=0 w=0
X6 vcm.t25 VSS error sky130_fd_pr__cap_var_lvt w=0 l=0
X7 vcm.t58 VSS error sky130_fd_pr__cap_var_lvt w=0 l=0
X8 vcm.t74 VSS error sky130_fd_pr__cap_var_lvt w=0 l=0
X9 vcm.t43 VSS error sky130_fd_pr__cap_var_lvt w=0 l=0
X10 vcm.t54 VSS error sky130_fd_pr__cap_var_lvt w=0 l=0
X11 vcm.t70 VSS error sky130_fd_pr__cap_var_lvt w=0 l=0
X12 vcm.t50 VSS error sky130_fd_pr__cap_var_lvt w=0 l=0
X13 vcm.t61 VSS error sky130_fd_pr__cap_var_lvt w=0 l=0
X14 vcm.t66 VSS error sky130_fd_pr__cap_var_lvt w=0 l=0
X15 vcm.t20 VSS error sky130_fd_pr__cap_var_lvt w=0 l=0
X16 vcm.t46 VSS error sky130_fd_pr__cap_var_lvt w=0 l=0
X17 vcm.t77 VSS error sky130_fd_pr__cap_var_lvt w=0 l=0
X18 VDD.t3 VSS sky130_fd_pr__cap_mim_m3_1 l=0 w=0
X19 vcm.t2 VSS error sky130_fd_pr__cap_var_lvt w=0 l=0
X20 vcm.t36 VSS error sky130_fd_pr__cap_var_lvt w=0 l=0
X21 vcm.t42 VSS error sky130_fd_pr__cap_var_lvt w=0 l=0
X22 VDD.t0 VSS error sky130_fd_pr__cap_var_lvt w=0 l=0
X23 VDD.t4 VSS error sky130_fd_pr__cap_var_lvt w=0 l=0
X24 vcm.t53 VSS error sky130_fd_pr__cap_var_lvt w=0 l=0
X25 vcm.t12 VSS error sky130_fd_pr__cap_var_lvt w=0 l=0
X26 vcm.t69 VSS error sky130_fd_pr__cap_var_lvt w=0 l=0
X27 vcm.t23 VSS error sky130_fd_pr__cap_var_lvt w=0 l=0
X28 vcm.t28 VSS error sky130_fd_pr__cap_var_lvt w=0 l=0
X29 vcm.t39 VSS error sky130_fd_pr__cap_var_lvt w=0 l=0
X30 vcm.t60 VSS error sky130_fd_pr__cap_var_lvt w=0 l=0
X31 vcm.t76 VSS error sky130_fd_pr__cap_var_lvt w=0 l=0
X32 VDD.t2 VSS error sky130_fd_pr__cap_var_lvt w=0 l=0
X33 vcm.t1 VSS error sky130_fd_pr__cap_var_lvt w=0 l=0
X34 vcm.t19 VSS error sky130_fd_pr__cap_var_lvt w=0 l=0
X35 vcm.t35 VSS error sky130_fd_pr__cap_var_lvt w=0 l=0
X36 vcm.t45 VSS error sky130_fd_pr__cap_var_lvt w=0 l=0
X37 vcm.t4 VSS error sky130_fd_pr__cap_var_lvt w=0 l=0
X38 sky130_fd_sc_hd__nand2_1_0/Y clk.t3 sky130_fd_sc_hd__nand2_1_0/a_113_47# VSS sky130_fd_pr__nfet_01v8 ad=0.169 pd=1.82 as=0.0878 ps=0.92 w=0 l=0
X39 vcm.t15 VSS error sky130_fd_pr__cap_var_lvt w=0 l=0
X40 vcm.t31 VSS error sky130_fd_pr__cap_var_lvt w=0 l=0
X41 vcm.t52 VSS error sky130_fd_pr__cap_var_lvt w=0 l=0
X42 vcm.t63 VSS error sky130_fd_pr__cap_var_lvt w=0 l=0
X43 vcm.t68 VSS error sky130_fd_pr__cap_var_lvt w=0 l=0
X44 vcm.t11 VSS error sky130_fd_pr__cap_var_lvt w=0 l=0
X45 vcm.t22 VSS error sky130_fd_pr__cap_var_lvt w=0 l=0
X46 vcm.t27 VSS error sky130_fd_pr__cap_var_lvt w=0 l=0
X47 vcm.t79 VSS error sky130_fd_pr__cap_var_lvt w=0 l=0
X48 vcm.t7 VSS error sky130_fd_pr__cap_var_lvt w=0 l=0
X49 vcm.t18 VSS error sky130_fd_pr__cap_var_lvt w=0 l=0
X50 vcm.t38 VSS error sky130_fd_pr__cap_var_lvt w=0 l=0
X51 vcm.t44 VSS error sky130_fd_pr__cap_var_lvt w=0 l=0
X52 vcm.t55 VSS error sky130_fd_pr__cap_var_lvt w=0 l=0
X53 vcm.t71 VSS error sky130_fd_pr__cap_var_lvt w=0 l=0
X54 sky130_fd_sc_hd__inv_1_4/Y clk.t0 VSS VSS sky130_fd_pr__nfet_01v8 ad=0.169 pd=1.82 as=0.169 ps=1.82 w=0 l=0
X55 vcm.t3 VSS error sky130_fd_pr__cap_var_lvt w=0 l=0
X56 vcm.t14 VSS error sky130_fd_pr__cap_var_lvt w=0 l=0
X57 VDD.t1 VSS sky130_fd_pr__cap_mim_m3_1 l=0 w=0
X58 vcm.t30 VSS error sky130_fd_pr__cap_var_lvt w=0 l=0
X59 vcm.t34 VSS error sky130_fd_pr__cap_var_lvt w=0 l=0
X60 vcm.t21 VSS error sky130_fd_pr__cap_var_lvt w=0 l=0
X61 vcm.t37 VSS error sky130_fd_pr__cap_var_lvt w=0 l=0
X62 vcm.t47 VSS error sky130_fd_pr__cap_var_lvt w=0 l=0
X63 vcm.t6 VSS error sky130_fd_pr__cap_var_lvt w=0 l=0
X64 vcm.t17 VSS error sky130_fd_pr__cap_var_lvt w=0 l=0
X65 vcm.t57 VSS error sky130_fd_pr__cap_var_lvt w=0 l=0
X66 vcm.t13 VSS error sky130_fd_pr__cap_var_lvt w=0 l=0
X67 vcm.t29 VSS error sky130_fd_pr__cap_var_lvt w=0 l=0
X68 vcm.t33 VSS error sky130_fd_pr__cap_var_lvt w=0 l=0
X69 vcm.t73 VSS error sky130_fd_pr__cap_var_lvt w=0 l=0
X70 vcm.t8 VSS error sky130_fd_pr__cap_var_lvt w=0 l=0
X71 vcm.t49 VSS error sky130_fd_pr__cap_var_lvt w=0 l=0
X72 vcm.t5 VSS error sky130_fd_pr__cap_var_lvt w=0 l=0
X73 vcm.t16 VSS error sky130_fd_pr__cap_var_lvt w=0 l=0
X74 vcm.t24 VSS error sky130_fd_pr__cap_var_lvt w=0 l=0
X75 vcm.t65 VSS error sky130_fd_pr__cap_var_lvt w=0 l=0
X76 vcm.t32 VSS error sky130_fd_pr__cap_var_lvt w=0 l=0
X77 vcm.t56 VSS error sky130_fd_pr__cap_var_lvt w=0 l=0
X78 vcm.t72 VSS error sky130_fd_pr__cap_var_lvt w=0 l=0
X79 vcm.t10 VSS error sky130_fd_pr__cap_var_lvt w=0 l=0
X80 vcm.t41 VSS error sky130_fd_pr__cap_var_lvt w=0 l=0
X81 VDD clk.t2 sky130_fd_sc_hd__nand2_1_0/Y VDD sky130_fd_pr__pfet_01v8_hvt ad=0.26 pd=2.52 as=0.135 ps=1.27 w=0 l=0
X82 vcm.t48 VSS error sky130_fd_pr__cap_var_lvt w=0 l=0
X83 vcm.t59 VSS error sky130_fd_pr__cap_var_lvt w=0 l=0
X84 vcm.t64 VSS error sky130_fd_pr__cap_var_lvt w=0 l=0
X85 sky130_fd_sc_hd__inv_1_4/Y clk.t1 VDD VDD sky130_fd_pr__pfet_01v8_hvt ad=0.26 pd=2.52 as=0.26 ps=2.52 w=0 l=0
X86 vcm.t26 VSS error sky130_fd_pr__cap_var_lvt w=0 l=0
X87 vcm.t75 VSS error sky130_fd_pr__cap_var_lvt w=0 l=0
X88 vcm.t9 VSS error sky130_fd_pr__cap_var_lvt w=0 l=0
X89 vcm.t40 VSS error sky130_fd_pr__cap_var_lvt w=0 l=0
X90 vcm.t51 VSS error sky130_fd_pr__cap_var_lvt w=0 l=0
R0 clk.n1 clk.t1 229.433
R1 clk.n0 clk.t2 229.04
R2 clk.n1 clk.t0 158.886
R3 clk.n0 clk.t3 158.46
R4 clk.n7 clk 38.8978
R5 clk.n8 clk.n0 8.7103
R6 clk.n2 clk.n1 7.39078
R7 clk.n4 clk.n3 3.46717
R8 clk clk.n8 3.16209
R9 clk.n6 clk.n4 3.03598
R10 clk.n7 clk.n6 2.61367
R11 clk.n8 clk.n7 2.26586
R12 clk.n4 clk.n2 1.06717
R13 clk.n3 clk 1.06717
R14 clk.n6 clk.n5 0.00666568
R15 VSS.n4945 VSS.n4944 34571.4
R16 VSS.n4814 VSS.n4812 34571.4
R17 VSS.n5108 VSS.n5107 34571.4
R18 VSS.n10411 VSS.n10410 32675.1
R19 VSS.n10530 VSS.n10524 32675.1
R20 VSS.n10522 VSS.n10520 32675.1
R21 VSS.n10515 VSS.n10253 32675.1
R22 VSS.n11347 VSS.n11346 23783
R23 VSS.n5108 VSS.n4745 22403.2
R24 VSS.n10202 VSS.n10201 21511.1
R25 VSS.n10484 VSS.n10483 21511.1
R26 VSS.n10189 VSS.n3684 21511.1
R27 VSS.n4877 VSS.n4872 21511.1
R28 VSS.n4953 VSS.n4951 21511.1
R29 VSS.n4809 VSS.n4801 21511.1
R30 VSS.n4875 VSS.n4551 21511.1
R31 VSS.n4903 VSS.n4900 21511.1
R32 VSS.n4560 VSS.n4559 21511.1
R33 VSS.n4764 VSS.n4763 21511.1
R34 VSS.n10187 VSS.n4555 21511.1
R35 VSS.n5169 VSS.n5168 21511.1
R36 VSS.n5092 VSS.n5091 21511.1
R37 VSS.n10362 VSS.n10281 21511.1
R38 VSS.n12493 VSS.n3599 21511.1
R39 VSS.n10358 VSS.n10282 21511.1
R40 VSS.n10511 VSS.n10254 21511.1
R41 VSS.n10517 VSS.n10252 21511.1
R42 VSS.n10241 VSS.n10240 21511.1
R43 VSS.n10247 VSS.n10246 21511.1
R44 VSS.n10250 VSS.n10249 21511.1
R45 VSS.n10504 VSS.n10255 21511.1
R46 VSS.n10305 VSS.n3600 21511.1
R47 VSS.n12485 VSS.n12484 21511.1
R48 VSS.n12506 VSS.n12505 21511.1
R49 VSS.n10206 VSS.n10205 21511.1
R50 VSS.n11436 VSS.n11435 21511.1
R51 VSS.n11347 VSS.n3638 20274.5
R52 VSS.n10410 VSS.n10409 20235.8
R53 VSS.n5094 VSS.n5093 18464.3
R54 VSS.n4814 VSS.n4813 18464.3
R55 VSS.n5101 VSS.n5100 18464.3
R56 VSS.n10530 VSS.n10529 17458.2
R57 VSS.n10506 VSS.n10505 17451.5
R58 VSS.n10510 VSS.n10509 17451.5
R59 VSS.n10522 VSS.n10521 17451.5
R60 VSS.n10516 VSS.n10515 17451.5
R61 VSS.n4896 VSS.n4889 17285.7
R62 VSS.n4866 VSS.n4865 17285.7
R63 VSS.n4880 VSS.n4879 17285.7
R64 VSS.n4557 VSS.n4556 17285.7
R65 VSS.n4855 VSS.n4854 17285.7
R66 VSS.n5060 VSS.n5059 17285.7
R67 VSS.n5065 VSS.n5064 17285.7
R68 VSS.n5174 VSS.n5173 17285.7
R69 VSS.n4843 VSS.n4777 17285.7
R70 VSS.n5051 VSS.n5050 17285.7
R71 VSS.n5039 VSS.n5037 17285.7
R72 VSS.n5164 VSS.n4728 17285.7
R73 VSS.n5162 VSS.n4730 17285.7
R74 VSS.n4837 VSS.n4836 17285.7
R75 VSS.n5030 VSS.n5029 17285.7
R76 VSS.n4993 VSS.n4992 17285.7
R77 VSS.n4998 VSS.n4996 17285.7
R78 VSS.n5150 VSS.n4733 17285.7
R79 VSS.n4825 VSS.n4785 17285.7
R80 VSS.n5020 VSS.n5019 17285.7
R81 VSS.n5009 VSS.n4976 17285.7
R82 VSS.n5007 VSS.n5006 17285.7
R83 VSS.n5143 VSS.n4736 17285.7
R84 VSS.n4929 VSS.n4928 17285.7
R85 VSS.n4969 VSS.n4968 17285.7
R86 VSS.n4794 VSS.n4793 17285.7
R87 VSS.n4791 VSS.n4790 17285.7
R88 VSS.n5136 VSS.n5133 17285.7
R89 VSS.n4937 VSS.n4802 17285.7
R90 VSS.n4959 VSS.n4958 17285.7
R91 VSS.n5089 VSS.n4748 17285.7
R92 VSS.n5124 VSS.n4742 17285.7
R93 VSS.n5122 VSS.n4744 17285.7
R94 VSS.n10292 VSS.n10291 17285.7
R95 VSS.n10294 VSS.n10225 17285.7
R96 VSS.n10345 VSS.n10344 17285.7
R97 VSS.n12519 VSS.n3591 17285.7
R98 VSS.n10429 VSS.n10271 17285.7
R99 VSS.n10220 VSS.n10219 17285.7
R100 VSS.n10327 VSS.n10326 17285.7
R101 VSS.n10336 VSS.n10330 17285.7
R102 VSS.n10334 VSS.n10333 17285.7
R103 VSS.n10397 VSS.n10269 17285.7
R104 VSS.n10455 VSS.n10454 17285.7
R105 VSS.n10449 VSS.n10448 17285.7
R106 VSS.n10446 VSS.n3378 17285.7
R107 VSS.n12533 VSS.n12532 17285.7
R108 VSS.n10464 VSS.n10265 17285.7
R109 VSS.n10476 VSS.n10475 17285.7
R110 VSS.n10473 VSS.n10472 17285.7
R111 VSS.n12546 VSS.n12545 17285.7
R112 VSS.n10499 VSS.n10256 17285.7
R113 VSS.n10489 VSS.n10487 17285.7
R114 VSS.n10244 VSS.n10243 17285.7
R115 VSS.n10537 VSS.n10536 17285.7
R116 VSS.n10284 VSS.n10283 17285.7
R117 VSS.n10288 VSS.n10287 17285.7
R118 VSS.n12512 VSS.n12510 17285.7
R119 VSS.n10369 VSS.n10368 17285.7
R120 VSS.n11479 VSS.n3604 17283.5
R121 VSS.n10171 VSS.n3685 14040.1
R122 VSS.n10511 VSS.n10510 12405.6
R123 VSS.n10517 VSS.n10516 12405.6
R124 VSS.n10521 VSS.n10250 12405.6
R125 VSS.n10505 VSS.n10504 12405.6
R126 VSS.n4951 VSS.n4808 12320
R127 VSS.n5093 VSS.n5092 12320
R128 VSS.n5102 VSS.n5101 12320
R129 VSS.n10176 VSS.n4560 11061.4
R130 VSS.n4896 VSS.n4895 11000
R131 VSS.n4855 VSS.n4774 11000
R132 VSS.n5059 VSS.n4774 11000
R133 VSS.n4766 VSS.n4720 11000
R134 VSS.n5173 VSS.n4720 11000
R135 VSS.n5052 VSS.n4777 11000
R136 VSS.n5052 VSS.n5051 11000
R137 VSS.n5050 VSS.n5049 11000
R138 VSS.n5039 VSS.n5038 11000
R139 VSS.n5038 VSS.n4728 11000
R140 VSS.n5164 VSS.n5163 11000
R141 VSS.n5163 VSS.n5162 11000
R142 VSS.n4837 VSS.n4782 11000
R143 VSS.n5029 VSS.n4782 11000
R144 VSS.n5031 VSS.n5030 11000
R145 VSS.n4994 VSS.n4993 11000
R146 VSS.n4996 VSS.n4994 11000
R147 VSS.n4998 VSS.n4997 11000
R148 VSS.n4997 VSS.n4733 11000
R149 VSS.n5021 VSS.n4785 11000
R150 VSS.n5021 VSS.n5020 11000
R151 VSS.n5019 VSS.n5018 11000
R152 VSS.n5009 VSS.n5008 11000
R153 VSS.n5008 VSS.n5007 11000
R154 VSS.n5006 VSS.n5005 11000
R155 VSS.n5005 VSS.n4736 11000
R156 VSS.n4929 VSS.n4799 11000
R157 VSS.n4968 VSS.n4799 11000
R158 VSS.n4970 VSS.n4969 11000
R159 VSS.n4793 VSS.n4792 11000
R160 VSS.n4792 VSS.n4791 11000
R161 VSS.n4790 VSS.n4739 11000
R162 VSS.n5133 VSS.n4739 11000
R163 VSS.n4960 VSS.n4802 11000
R164 VSS.n4960 VSS.n4959 11000
R165 VSS.n4952 VSS.n4748 11000
R166 VSS.n5090 VSS.n5089 11000
R167 VSS.n5090 VSS.n4742 11000
R168 VSS.n5124 VSS.n5123 11000
R169 VSS.n5123 VSS.n5122 11000
R170 VSS.n10293 VSS.n10292 11000
R171 VSS.n10294 VSS.n10293 11000
R172 VSS.n10569 VSS.n10225 11000
R173 VSS.n10569 VSS.n10568 11000
R174 VSS.n10346 VSS.n10227 11000
R175 VSS.n10346 VSS.n10345 11000
R176 VSS.n10344 VSS.n10343 11000
R177 VSS.n10343 VSS.n3591 11000
R178 VSS.n10430 VSS.n10429 11000
R179 VSS.n10430 VSS.n10219 11000
R180 VSS.n10572 VSS.n10220 11000
R181 VSS.n10328 VSS.n10327 11000
R182 VSS.n10330 VSS.n10328 11000
R183 VSS.n10336 VSS.n10335 11000
R184 VSS.n10335 VSS.n10334 11000