* NGSPICE file created from hgu_cdac_half_flat.ext - technology: sky130A

.subckt hgu_cdac_half_flat d<6> d<5> d<4> d<3> d<2> d<1> d<0> db<6> db<5> db<4> db<3> db<2> db<1> db<0>
+ VSS VREF t<6> t<5> t<4> t<3> t<2> t<1> t<0> tb<6> tb<5> tb<4> tb<3> tb<2> tb<1> tb<0> VDD
X0 VREF d<3> hgu_cdac_8bit_array_3.drv<7:0> VDD sky130_fd_pr__pfet_01v8_lvt ad=0.122 pd=1.13 as=0.122 ps=1.13 w=0.84 l=0.35
X1 VREF db<3> hgu_cdac_8bit_array_2.drv<7:0> VDD sky130_fd_pr__pfet_01v8_lvt ad=0.244 pd=2.26 as=0.122 ps=1.13 w=0.84 l=0.35
X2 hgu_cdac_8bit_array_2.drv<31:0> db<5> VREF VDD sky130_fd_pr__pfet_01v8_lvt ad=0.122 pd=1.13 as=0.122 ps=1.13 w=0.84 l=0.35
X3 hgu_cdac_8bit_array_3.drv<63:0> d<6> VREF VDD sky130_fd_pr__pfet_01v8_lvt ad=0.122 pd=1.13 as=0.244 ps=2.26 w=0.84 l=0.35
X4 VREF d<5> hgu_cdac_8bit_array_3.drv<31:0> VDD sky130_fd_pr__pfet_01v8_lvt ad=0.122 pd=1.13 as=0.122 ps=1.13 w=0.84 l=0.35
X5 hgu_cdac_8bit_array_3.drv<63:0> d<6> VSS VSS sky130_fd_pr__nfet_01v8_lvt ad=0.0609 pd=0.71 as=0.0609 ps=0.71 w=0.42 l=0.35
X6 hgu_cdac_8bit_array_3.drv<31:0> d<5> VSS VSS sky130_fd_pr__nfet_01v8_lvt ad=0.0609 pd=0.71 as=0.0609 ps=0.71 w=0.42 l=0.35
X7 VSS db<6> hgu_cdac_8bit_array_2.drv<63:0> VSS sky130_fd_pr__nfet_01v8_lvt ad=0.0609 pd=0.71 as=0.0609 ps=0.71 w=0.42 l=0.35
X8 VREF db<6> hgu_cdac_8bit_array_2.drv<63:0> VDD sky130_fd_pr__pfet_01v8_lvt ad=0.122 pd=1.13 as=0.122 ps=1.13 w=0.84 l=0.35
X9 hgu_cdac_8bit_array_3.drv<63:0> d<6> VSS VSS sky130_fd_pr__nfet_01v8_lvt ad=0.0609 pd=0.71 as=0.0609 ps=0.71 w=0.42 l=0.35
X10 VREF d<4> hgu_cdac_8bit_array_3.drv<15:0> VDD sky130_fd_pr__pfet_01v8_lvt ad=0.122 pd=1.13 as=0.122 ps=1.13 w=0.84 l=0.35
X11 VSS db<5> hgu_cdac_8bit_array_2.drv<31:0> VSS sky130_fd_pr__nfet_01v8_lvt ad=0.0609 pd=0.71 as=0.0609 ps=0.71 w=0.42 l=0.35
X12 hgu_cdac_8bit_array_3.drv<63:0> d<6> VREF VDD sky130_fd_pr__pfet_01v8_lvt ad=0.122 pd=1.13 as=0.122 ps=1.13 w=0.84 l=0.35
X13 VREF d<6> hgu_cdac_8bit_array_3.drv<63:0> VDD sky130_fd_pr__pfet_01v8_lvt ad=0.122 pd=1.13 as=0.122 ps=1.13 w=0.84 l=0.35
X14 VSS db<6> hgu_cdac_8bit_array_2.drv<63:0> VSS sky130_fd_pr__nfet_01v8_lvt ad=0.0609 pd=0.71 as=0.0609 ps=0.71 w=0.42 l=0.35
X15 hgu_cdac_8bit_array_3.drv<31:0> d<5> VREF VDD sky130_fd_pr__pfet_01v8_lvt ad=0.122 pd=1.13 as=0.122 ps=1.13 w=0.84 l=0.35
X16 VREF d<3> hgu_cdac_8bit_array_3.drv<7:0> VDD sky130_fd_pr__pfet_01v8_lvt ad=0.122 pd=1.13 as=0.122 ps=1.13 w=0.84 l=0.35
X17 hgu_cdac_8bit_array_3.drv<1:0> d<1> VSS VSS sky130_fd_pr__nfet_01v8_lvt ad=0.0609 pd=0.71 as=0.122 ps=1.42 w=0.42 l=0.35
X18 hgu_cdac_8bit_array_3.drv<15:0> d<4> VSS VSS sky130_fd_pr__nfet_01v8_lvt ad=0.0609 pd=0.71 as=0.0609 ps=0.71 w=0.42 l=0.35
X19 VSS db<6> hgu_cdac_8bit_array_2.drv<63:0> VSS sky130_fd_pr__nfet_01v8_lvt ad=0.0609 pd=0.71 as=0.0609 ps=0.71 w=0.42 l=0.35
X20 hgu_cdac_8bit_array_3.drv<31:0> d<5> VSS VSS sky130_fd_pr__nfet_01v8_lvt ad=0.0609 pd=0.71 as=0.0609 ps=0.71 w=0.42 l=0.35
X21 VREF db<6> hgu_cdac_8bit_array_2.drv<63:0> VDD sky130_fd_pr__pfet_01v8_lvt ad=0.122 pd=1.13 as=0.122 ps=1.13 w=0.84 l=0.35
X22 hgu_cdac_8bit_array_2.drv<15:0> db<4> VREF VDD sky130_fd_pr__pfet_01v8_lvt ad=0.122 pd=1.13 as=0.122 ps=1.13 w=0.84 l=0.35
X23 hgu_cdac_8bit_array_3.drv<63:0> d<6> VSS VSS sky130_fd_pr__nfet_01v8_lvt ad=0.0609 pd=0.71 as=0.0609 ps=0.71 w=0.42 l=0.35
X24 VSS db<4> hgu_cdac_8bit_array_2.drv<15:0> VSS sky130_fd_pr__nfet_01v8_lvt ad=0.0609 pd=0.71 as=0.0609 ps=0.71 w=0.42 l=0.35
X25 VSS db<5> hgu_cdac_8bit_array_2.drv<31:0> VSS sky130_fd_pr__nfet_01v8_lvt ad=0.0609 pd=0.71 as=0.0609 ps=0.71 w=0.42 l=0.35
X26 VREF d<6> hgu_cdac_8bit_array_3.drv<63:0> VDD sky130_fd_pr__pfet_01v8_lvt ad=0.122 pd=1.13 as=0.122 ps=1.13 w=0.84 l=0.35
X27 hgu_cdac_8bit_array_3.drv<15:0> d<4> VREF VDD sky130_fd_pr__pfet_01v8_lvt ad=0.122 pd=1.13 as=0.244 ps=2.26 w=0.84 l=0.35
X28 hgu_cdac_8bit_array_3.drv<15:0> d<4> VSS VSS sky130_fd_pr__nfet_01v8_lvt ad=0.0609 pd=0.71 as=0.0609 ps=0.71 w=0.42 l=0.35
X29 hgu_cdac_8bit_array_2.drv<63:0> db<6> VSS VSS sky130_fd_pr__nfet_01v8_lvt ad=0.0609 pd=0.71 as=0.0609 ps=0.71 w=0.42 l=0.35
X30 hgu_cdac_8bit_array_2.drv<63:0> db<6> VREF VDD sky130_fd_pr__pfet_01v8_lvt ad=0.122 pd=1.13 as=0.122 ps=1.13 w=0.84 l=0.35
X31 hgu_cdac_8bit_array_2.drv<1:0> db<1> VSS VSS sky130_fd_pr__nfet_01v8_lvt ad=0.0609 pd=0.71 as=0.122 ps=1.42 w=0.42 l=0.35
X32 VSS d<6> hgu_cdac_8bit_array_3.drv<63:0> VSS sky130_fd_pr__nfet_01v8_lvt ad=0.0609 pd=0.71 as=0.0609 ps=0.71 w=0.42 l=0.35
X33 VREF db<6> hgu_cdac_8bit_array_2.drv<63:0> VDD sky130_fd_pr__pfet_01v8_lvt ad=0.122 pd=1.13 as=0.122 ps=1.13 w=0.84 l=0.35
X34 hgu_cdac_8bit_array_3.drv<63:0> d<6> VREF VDD sky130_fd_pr__pfet_01v8_lvt ad=0.122 pd=1.13 as=0.122 ps=1.13 w=0.84 l=0.35
X35 hgu_cdac_8bit_array_2.drv<7:0> db<3> VSS VSS sky130_fd_pr__nfet_01v8_lvt ad=0.0609 pd=0.71 as=0.0609 ps=0.71 w=0.42 l=0.35
X36 hgu_cdac_8bit_array_2.drv<31:0> db<5> VREF VDD sky130_fd_pr__pfet_01v8_lvt ad=0.122 pd=1.13 as=0.122 ps=1.13 w=0.84 l=0.35
X37 VSS db<6> hgu_cdac_8bit_array_2.drv<63:0> VSS sky130_fd_pr__nfet_01v8_lvt ad=0.0609 pd=0.71 as=0.0609 ps=0.71 w=0.42 l=0.35
X38 VREF db<6> hgu_cdac_8bit_array_2.drv<63:0> VDD sky130_fd_pr__pfet_01v8_lvt ad=0.122 pd=1.13 as=0.122 ps=1.13 w=0.84 l=0.35
X39 VREF d<6> hgu_cdac_8bit_array_3.drv<63:0> VDD sky130_fd_pr__pfet_01v8_lvt ad=0.122 pd=1.13 as=0.122 ps=1.13 w=0.84 l=0.35
X40 hgu_cdac_8bit_array_2.drv<63:0> db<6> VSS VSS sky130_fd_pr__nfet_01v8_lvt ad=0.0609 pd=0.71 as=0.0609 ps=0.71 w=0.42 l=0.35
X41 hgu_cdac_8bit_array_3.drv<63:0> d<6> VSS VSS sky130_fd_pr__nfet_01v8_lvt ad=0.0609 pd=0.71 as=0.0609 ps=0.71 w=0.42 l=0.35
X42 VREF d<5> hgu_cdac_8bit_array_3.drv<31:0> VDD sky130_fd_pr__pfet_01v8_lvt ad=0.122 pd=1.13 as=0.122 ps=1.13 w=0.84 l=0.35
X43 hgu_cdac_8bit_array_2.drv<7:0> db<3> VREF VDD sky130_fd_pr__pfet_01v8_lvt ad=0.122 pd=1.13 as=0.244 ps=2.26 w=0.84 l=0.35
X44 VREF db<2> hgu_cdac_8bit_array_2.hgu_cdac_cap_4_0.CBOT VDD sky130_fd_pr__pfet_01v8_lvt ad=0.122 pd=1.13 as=0.122 ps=1.13 w=0.84 l=0.35
X45 VSS d<6> hgu_cdac_8bit_array_3.drv<63:0> VSS sky130_fd_pr__nfet_01v8_lvt ad=0.0609 pd=0.71 as=0.0609 ps=0.71 w=0.42 l=0.35
X46 VSS d<5> hgu_cdac_8bit_array_3.drv<31:0> VSS sky130_fd_pr__nfet_01v8_lvt ad=0.0609 pd=0.71 as=0.0609 ps=0.71 w=0.42 l=0.35
X47 hgu_cdac_8bit_array_3.drv<7:0> d<3> VSS VSS sky130_fd_pr__nfet_01v8_lvt ad=0.0609 pd=0.71 as=0.0609 ps=0.71 w=0.42 l=0.35
X48 hgu_cdac_8bit_array_3.drv<63:0> d<6> VREF VDD sky130_fd_pr__pfet_01v8_lvt ad=0.122 pd=1.13 as=0.122 ps=1.13 w=0.84 l=0.35
X49 VSS db<6> hgu_cdac_8bit_array_2.drv<63:0> VSS sky130_fd_pr__nfet_01v8_lvt ad=0.0609 pd=0.71 as=0.0609 ps=0.71 w=0.42 l=0.35
X50 hgu_cdac_8bit_array_3.drv<31:0> d<5> VSS VSS sky130_fd_pr__nfet_01v8_lvt ad=0.0609 pd=0.71 as=0.0609 ps=0.71 w=0.42 l=0.35
X51 VREF d<6> hgu_cdac_8bit_array_3.drv<63:0> VDD sky130_fd_pr__pfet_01v8_lvt ad=0.122 pd=1.13 as=0.122 ps=1.13 w=0.84 l=0.35
X52 hgu_cdac_8bit_array_3.drv<63:0> d<6> VSS VSS sky130_fd_pr__nfet_01v8_lvt ad=0.0609 pd=0.71 as=0.0609 ps=0.71 w=0.42 l=0.35
X53 hgu_cdac_8bit_array_3.drv<63:0> d<6> VSS VSS sky130_fd_pr__nfet_01v8_lvt ad=0.0609 pd=0.71 as=0.0609 ps=0.71 w=0.42 l=0.35
X54 VSS db<5> hgu_cdac_8bit_array_2.drv<31:0> VSS sky130_fd_pr__nfet_01v8_lvt ad=0.0609 pd=0.71 as=0.0609 ps=0.71 w=0.42 l=0.35
X55 VREF db<6> hgu_cdac_8bit_array_2.drv<63:0> VDD sky130_fd_pr__pfet_01v8_lvt ad=0.122 pd=1.13 as=0.122 ps=1.13 w=0.84 l=0.35
X56 VREF d<6> hgu_cdac_8bit_array_3.drv<63:0> VDD sky130_fd_pr__pfet_01v8_lvt ad=0.122 pd=1.13 as=0.122 ps=1.13 w=0.84 l=0.35
X57 hgu_cdac_8bit_array_3.drv<31:0> d<5> VREF VDD sky130_fd_pr__pfet_01v8_lvt ad=0.122 pd=1.13 as=0.122 ps=1.13 w=0.84 l=0.35
X58 hgu_cdac_8bit_array_2.drv<63:0> db<6> VSS VSS sky130_fd_pr__nfet_01v8_lvt ad=0.0609 pd=0.71 as=0.0609 ps=0.71 w=0.42 l=0.35
X59 hgu_cdac_8bit_array_2.drv<31:0> db<5> VREF VDD sky130_fd_pr__pfet_01v8_lvt ad=0.122 pd=1.13 as=0.122 ps=1.13 w=0.84 l=0.35
X60 hgu_cdac_8bit_array_2.hgu_cdac_cap_4_0.CBOT db<2> VSS VSS sky130_fd_pr__nfet_01v8_lvt ad=0.0609 pd=0.71 as=0.0609 ps=0.71 w=0.42 l=0.35
X61 VREF db<6> hgu_cdac_8bit_array_2.drv<63:0> VDD sky130_fd_pr__pfet_01v8_lvt ad=0.244 pd=2.26 as=0.122 ps=1.13 w=0.84 l=0.35
X62 hgu_cdac_8bit_array_2.drv<0> db<0> VSS VSS sky130_fd_pr__nfet_01v8_lvt ad=0.122 pd=1.42 as=0.122 ps=1.42 w=0.42 l=0.35
X63 hgu_cdac_8bit_array_3.drv<63:0> d<6> VSS VSS sky130_fd_pr__nfet_01v8_lvt ad=0.0609 pd=0.71 as=0.0609 ps=0.71 w=0.42 l=0.35
X64 VSS db<5> hgu_cdac_8bit_array_2.drv<31:0> VSS sky130_fd_pr__nfet_01v8_lvt ad=0.0609 pd=0.71 as=0.0609 ps=0.71 w=0.42 l=0.35
X65 VREF db<6> hgu_cdac_8bit_array_2.drv<63:0> VDD sky130_fd_pr__pfet_01v8_lvt ad=0.122 pd=1.13 as=0.122 ps=1.13 w=0.84 l=0.35
X66 VREF d<6> hgu_cdac_8bit_array_3.drv<63:0> VDD sky130_fd_pr__pfet_01v8_lvt ad=0.122 pd=1.13 as=0.122 ps=1.13 w=0.84 l=0.35
X67 hgu_cdac_8bit_array_3.drv<15:0> d<4> VREF VDD sky130_fd_pr__pfet_01v8_lvt ad=0.122 pd=1.13 as=0.122 ps=1.13 w=0.84 l=0.35
X68 VREF d<6> hgu_cdac_8bit_array_3.drv<63:0> VDD sky130_fd_pr__pfet_01v8_lvt ad=0.122 pd=1.13 as=0.122 ps=1.13 w=0.84 l=0.35
X69 VREF d<5> hgu_cdac_8bit_array_3.drv<31:0> VDD sky130_fd_pr__pfet_01v8_lvt ad=0.122 pd=1.13 as=0.122 ps=1.13 w=0.84 l=0.35
X70 VSS d<4> hgu_cdac_8bit_array_3.drv<15:0> VSS sky130_fd_pr__nfet_01v8_lvt ad=0.0609 pd=0.71 as=0.0609 ps=0.71 w=0.42 l=0.35
X71 hgu_cdac_8bit_array_2.drv<63:0> db<6> VSS VSS sky130_fd_pr__nfet_01v8_lvt ad=0.0609 pd=0.71 as=0.0609 ps=0.71 w=0.42 l=0.35
X72 VREF db<4> hgu_cdac_8bit_array_2.drv<15:0> VDD sky130_fd_pr__pfet_01v8_lvt ad=0.122 pd=1.13 as=0.122 ps=1.13 w=0.84 l=0.35
X73 VREF d<6> hgu_cdac_8bit_array_3.drv<63:0> VDD sky130_fd_pr__pfet_01v8_lvt ad=0.122 pd=1.13 as=0.122 ps=1.13 w=0.84 l=0.35
X74 VREF db<5> hgu_cdac_8bit_array_2.drv<31:0> VDD sky130_fd_pr__pfet_01v8_lvt ad=0.122 pd=1.13 as=0.122 ps=1.13 w=0.84 l=0.35
X75 hgu_cdac_8bit_array_3.hgu_cdac_cap_4_0.CBOT d<2> VSS VSS sky130_fd_pr__nfet_01v8_lvt ad=0.0609 pd=0.71 as=0.0609 ps=0.71 w=0.42 l=0.35
X76 hgu_cdac_8bit_array_2.drv<63:0> db<6> VSS VSS sky130_fd_pr__nfet_01v8_lvt ad=0.0609 pd=0.71 as=0.0609 ps=0.71 w=0.42 l=0.35
X77 hgu_cdac_8bit_array_2.drv<63:0> db<6> VREF VDD sky130_fd_pr__pfet_01v8_lvt ad=0.122 pd=1.13 as=0.122 ps=1.13 w=0.84 l=0.35
X78 VREF d<4> hgu_cdac_8bit_array_3.drv<15:0> VDD sky130_fd_pr__pfet_01v8_lvt ad=0.122 pd=1.13 as=0.122 ps=1.13 w=0.84 l=0.35
X79 VREF db<6> hgu_cdac_8bit_array_2.drv<63:0> VDD sky130_fd_pr__pfet_01v8_lvt ad=0.122 pd=1.13 as=0.122 ps=1.13 w=0.84 l=0.35
X80 VSS d<6> hgu_cdac_8bit_array_3.drv<63:0> VSS sky130_fd_pr__nfet_01v8_lvt ad=0.0609 pd=0.71 as=0.0609 ps=0.71 w=0.42 l=0.35
X81 hgu_cdac_8bit_array_2.drv<15:0> db<4> VSS VSS sky130_fd_pr__nfet_01v8_lvt ad=0.0609 pd=0.71 as=0.0609 ps=0.71 w=0.42 l=0.35
X82 VREF d<6> hgu_cdac_8bit_array_3.drv<63:0> VDD sky130_fd_pr__pfet_01v8_lvt ad=0.122 pd=1.13 as=0.122 ps=1.13 w=0.84 l=0.35
X83 VSS d<4> hgu_cdac_8bit_array_3.drv<15:0> VSS sky130_fd_pr__nfet_01v8_lvt ad=0.0609 pd=0.71 as=0.0609 ps=0.71 w=0.42 l=0.35
X84 hgu_cdac_8bit_array_3.drv<63:0> d<6> VSS VSS sky130_fd_pr__nfet_01v8_lvt ad=0.0609 pd=0.71 as=0.0609 ps=0.71 w=0.42 l=0.35
X85 hgu_cdac_8bit_array_2.drv<31:0> db<5> VREF VDD sky130_fd_pr__pfet_01v8_lvt ad=0.122 pd=1.13 as=0.244 ps=2.26 w=0.84 l=0.35
X86 VREF d<5> hgu_cdac_8bit_array_3.drv<31:0> VDD sky130_fd_pr__pfet_01v8_lvt ad=0.122 pd=1.13 as=0.122 ps=1.13 w=0.84 l=0.35
X87 hgu_cdac_8bit_array_3.drv<31:0> d<5> VSS VSS sky130_fd_pr__nfet_01v8_lvt ad=0.0609 pd=0.71 as=0.122 ps=1.42 w=0.42 l=0.35
X88 VREF db<4> hgu_cdac_8bit_array_2.drv<15:0> VDD sky130_fd_pr__pfet_01v8_lvt ad=0.122 pd=1.13 as=0.122 ps=1.13 w=0.84 l=0.35
X89 VREF db<5> hgu_cdac_8bit_array_2.drv<31:0> VDD sky130_fd_pr__pfet_01v8_lvt ad=0.122 pd=1.13 as=0.122 ps=1.13 w=0.84 l=0.35
X90 VREF d<6> hgu_cdac_8bit_array_3.drv<63:0> VDD sky130_fd_pr__pfet_01v8_lvt ad=0.122 pd=1.13 as=0.122 ps=1.13 w=0.84 l=0.35
X91 VSS d<6> hgu_cdac_8bit_array_3.drv<63:0> VSS sky130_fd_pr__nfet_01v8_lvt ad=0.0609 pd=0.71 as=0.0609 ps=0.71 w=0.42 l=0.35
X92 hgu_cdac_8bit_array_2.drv<63:0> db<6> VSS VSS sky130_fd_pr__nfet_01v8_lvt ad=0.0609 pd=0.71 as=0.0609 ps=0.71 w=0.42 l=0.35
X93 VSS d<5> hgu_cdac_8bit_array_3.drv<31:0> VSS sky130_fd_pr__nfet_01v8_lvt ad=0.0609 pd=0.71 as=0.0609 ps=0.71 w=0.42 l=0.35
X94 hgu_cdac_8bit_array_3.drv<63:0> d<6> VSS VSS sky130_fd_pr__nfet_01v8_lvt ad=0.0609 pd=0.71 as=0.0609 ps=0.71 w=0.42 l=0.35
X95 hgu_cdac_8bit_array_2.drv<63:0> db<6> VREF VDD sky130_fd_pr__pfet_01v8_lvt ad=0.122 pd=1.13 as=0.122 ps=1.13 w=0.84 l=0.35
X96 hgu_cdac_8bit_array_3.drv<63:0> d<6> VREF VDD sky130_fd_pr__pfet_01v8_lvt ad=0.122 pd=1.13 as=0.122 ps=1.13 w=0.84 l=0.35
X97 VSS db<6> hgu_cdac_8bit_array_2.drv<63:0> VSS sky130_fd_pr__nfet_01v8_lvt ad=0.0609 pd=0.71 as=0.0609 ps=0.71 w=0.42 l=0.35
X98 hgu_cdac_8bit_array_2.drv<15:0> db<4> VSS VSS sky130_fd_pr__nfet_01v8_lvt ad=0.0609 pd=0.71 as=0.122 ps=1.42 w=0.42 l=0.35
X99 VREF d<1> hgu_cdac_8bit_array_3.drv<1:0> VDD sky130_fd_pr__pfet_01v8_lvt ad=0.244 pd=2.26 as=0.122 ps=1.13 w=0.84 l=0.35
X100 hgu_cdac_8bit_array_2.drv<15:0> db<4> VSS VSS sky130_fd_pr__nfet_01v8_lvt ad=0.0609 pd=0.71 as=0.0609 ps=0.71 w=0.42 l=0.35
X101 hgu_cdac_8bit_array_2.drv<31:0> db<5> VSS VSS sky130_fd_pr__nfet_01v8_lvt ad=0.0609 pd=0.71 as=0.0609 ps=0.71 w=0.42 l=0.35
X102 VREF db<3> hgu_cdac_8bit_array_2.drv<7:0> VDD sky130_fd_pr__pfet_01v8_lvt ad=0.122 pd=1.13 as=0.122 ps=1.13 w=0.84 l=0.35
X103 hgu_cdac_8bit_array_3.drv<63:0> d<6> VREF VDD sky130_fd_pr__pfet_01v8_lvt ad=0.122 pd=1.13 as=0.122 ps=1.13 w=0.84 l=0.35
X104 VREF d<5> hgu_cdac_8bit_array_3.drv<31:0> VDD sky130_fd_pr__pfet_01v8_lvt ad=0.122 pd=1.13 as=0.122 ps=1.13 w=0.84 l=0.35
X105 hgu_cdac_8bit_array_2.drv<63:0> db<6> VSS VSS sky130_fd_pr__nfet_01v8_lvt ad=0.0609 pd=0.71 as=0.0609 ps=0.71 w=0.42 l=0.35
X106 hgu_cdac_8bit_array_3.drv<63:0> d<6> VSS VSS sky130_fd_pr__nfet_01v8_lvt ad=0.0609 pd=0.71 as=0.0609 ps=0.71 w=0.42 l=0.35
X107 VSS db<6> hgu_cdac_8bit_array_2.drv<63:0> VSS sky130_fd_pr__nfet_01v8_lvt ad=0.0609 pd=0.71 as=0.0609 ps=0.71 w=0.42 l=0.35
X108 VSS d<3> hgu_cdac_8bit_array_3.drv<7:0> VSS sky130_fd_pr__nfet_01v8_lvt ad=0.0609 pd=0.71 as=0.0609 ps=0.71 w=0.42 l=0.35
X109 hgu_cdac_8bit_array_3.drv<31:0> d<5> VSS VSS sky130_fd_pr__nfet_01v8_lvt ad=0.0609 pd=0.71 as=0.0609 ps=0.71 w=0.42 l=0.35
X110 VREF db<6> hgu_cdac_8bit_array_2.drv<63:0> VDD sky130_fd_pr__pfet_01v8_lvt ad=0.122 pd=1.13 as=0.122 ps=1.13 w=0.84 l=0.35
X111 VREF d<6> hgu_cdac_8bit_array_3.drv<63:0> VDD sky130_fd_pr__pfet_01v8_lvt ad=0.244 pd=2.26 as=0.122 ps=1.13 w=0.84 l=0.35
X112 hgu_cdac_8bit_array_3.hgu_cdac_cap_4_0.CBOT d<2> VREF VDD sky130_fd_pr__pfet_01v8_lvt ad=0.122 pd=1.13 as=0.244 ps=2.26 w=0.84 l=0.35
X113 VSS d<5> hgu_cdac_8bit_array_3.drv<31:0> VSS sky130_fd_pr__nfet_01v8_lvt ad=0.0609 pd=0.71 as=0.0609 ps=0.71 w=0.42 l=0.35
X114 hgu_cdac_8bit_array_3.drv<63:0> d<6> VSS VSS sky130_fd_pr__nfet_01v8_lvt ad=0.0609 pd=0.71 as=0.122 ps=1.42 w=0.42 l=0.35
X115 VREF d<5> hgu_cdac_8bit_array_3.drv<31:0> VDD sky130_fd_pr__pfet_01v8_lvt ad=0.122 pd=1.13 as=0.122 ps=1.13 w=0.84 l=0.35
X116 VSS db<5> hgu_cdac_8bit_array_2.drv<31:0> VSS sky130_fd_pr__nfet_01v8_lvt ad=0.0609 pd=0.71 as=0.0609 ps=0.71 w=0.42 l=0.35
X117 hgu_cdac_8bit_array_2.drv<63:0> db<6> VREF VDD sky130_fd_pr__pfet_01v8_lvt ad=0.122 pd=1.13 as=0.122 ps=1.13 w=0.84 l=0.35
X118 hgu_cdac_8bit_array_2.drv<15:0> db<4> VSS VSS sky130_fd_pr__nfet_01v8_lvt ad=0.0609 pd=0.71 as=0.0609 ps=0.71 w=0.42 l=0.35
X119 VREF db<5> hgu_cdac_8bit_array_2.drv<31:0> VDD sky130_fd_pr__pfet_01v8_lvt ad=0.244 pd=2.26 as=0.122 ps=1.13 w=0.84 l=0.35
X120 VSS d<4> hgu_cdac_8bit_array_3.drv<15:0> VSS sky130_fd_pr__nfet_01v8_lvt ad=0.0609 pd=0.71 as=0.0609 ps=0.71 w=0.42 l=0.35
X121 hgu_cdac_8bit_array_3.drv<63:0> d<6> VSS VSS sky130_fd_pr__nfet_01v8_lvt ad=0.0609 pd=0.71 as=0.0609 ps=0.71 w=0.42 l=0.35
X122 VSS d<6> hgu_cdac_8bit_array_3.drv<63:0> VSS sky130_fd_pr__nfet_01v8_lvt ad=0.0609 pd=0.71 as=0.0609 ps=0.71 w=0.42 l=0.35
X123 VSS d<3> hgu_cdac_8bit_array_3.drv<7:0> VSS sky130_fd_pr__nfet_01v8_lvt ad=0.0609 pd=0.71 as=0.0609 ps=0.71 w=0.42 l=0.35
X124 hgu_cdac_8bit_array_3.drv<31:0> d<5> VSS VSS sky130_fd_pr__nfet_01v8_lvt ad=0.0609 pd=0.71 as=0.0609 ps=0.71 w=0.42 l=0.35
X125 VREF db<6> hgu_cdac_8bit_array_2.drv<63:0> VDD sky130_fd_pr__pfet_01v8_lvt ad=0.122 pd=1.13 as=0.122 ps=1.13 w=0.84 l=0.35
X126 hgu_cdac_8bit_array_2.drv<15:0> db<4> VREF VDD sky130_fd_pr__pfet_01v8_lvt ad=0.122 pd=1.13 as=0.122 ps=1.13 w=0.84 l=0.35
X127 hgu_cdac_8bit_array_2.drv<7:0> db<3> VSS VSS sky130_fd_pr__nfet_01v8_lvt ad=0.0609 pd=0.71 as=0.0609 ps=0.71 w=0.42 l=0.35
X128 VREF d<6> hgu_cdac_8bit_array_3.drv<63:0> VDD sky130_fd_pr__pfet_01v8_lvt ad=0.122 pd=1.13 as=0.122 ps=1.13 w=0.84 l=0.35
X129 VREF db<5> hgu_cdac_8bit_array_2.drv<31:0> VDD sky130_fd_pr__pfet_01v8_lvt ad=0.122 pd=1.13 as=0.122 ps=1.13 w=0.84 l=0.35
X130 hgu_cdac_8bit_array_2.drv<63:0> db<6> VSS VSS sky130_fd_pr__nfet_01v8_lvt ad=0.0609 pd=0.71 as=0.0609 ps=0.71 w=0.42 l=0.35
X131 VSS db<2> hgu_cdac_8bit_array_2.hgu_cdac_cap_4_0.CBOT VSS sky130_fd_pr__nfet_01v8_lvt ad=0.122 pd=1.42 as=0.0609 ps=0.71 w=0.42 l=0.35
X132 hgu_cdac_8bit_array_3.drv<15:0> d<4> VSS VSS sky130_fd_pr__nfet_01v8_lvt ad=0.0609 pd=0.71 as=0.122 ps=1.42 w=0.42 l=0.35
X133 VSS d<6> hgu_cdac_8bit_array_3.drv<63:0> VSS sky130_fd_pr__nfet_01v8_lvt ad=0.0609 pd=0.71 as=0.0609 ps=0.71 w=0.42 l=0.35
X134 hgu_cdac_8bit_array_2.drv<15:0> db<4> VREF VDD sky130_fd_pr__pfet_01v8_lvt ad=0.122 pd=1.13 as=0.122 ps=1.13 w=0.84 l=0.35
X135 VREF d<5> hgu_cdac_8bit_array_3.drv<31:0> VDD sky130_fd_pr__pfet_01v8_lvt ad=0.244 pd=2.26 as=0.122 ps=1.13 w=0.84 l=0.35
X136 hgu_cdac_8bit_array_3.drv<0> d<0> VREF VDD sky130_fd_pr__pfet_01v8_lvt ad=0.244 pd=2.26 as=0.244 ps=2.26 w=0.84 l=0.35
X137 VSS db<6> hgu_cdac_8bit_array_2.drv<63:0> VSS sky130_fd_pr__nfet_01v8_lvt ad=0.0609 pd=0.71 as=0.0609 ps=0.71 w=0.42 l=0.35
X138 VREF d<6> hgu_cdac_8bit_array_3.drv<63:0> VDD sky130_fd_pr__pfet_01v8_lvt ad=0.122 pd=1.13 as=0.122 ps=1.13 w=0.84 l=0.35
X139 hgu_cdac_8bit_array_2.drv<63:0> db<6> VREF VDD sky130_fd_pr__pfet_01v8_lvt ad=0.122 pd=1.13 as=0.122 ps=1.13 w=0.84 l=0.35
X140 hgu_cdac_8bit_array_2.drv<63:0> db<6> VSS VSS sky130_fd_pr__nfet_01v8_lvt ad=0.0609 pd=0.71 as=0.0609 ps=0.71 w=0.42 l=0.35
X141 hgu_cdac_8bit_array_3.drv<63:0> d<6> VSS VSS sky130_fd_pr__nfet_01v8_lvt ad=0.0609 pd=0.71 as=0.0609 ps=0.71 w=0.42 l=0.35
X142 VSS db<5> hgu_cdac_8bit_array_2.drv<31:0> VSS sky130_fd_pr__nfet_01v8_lvt ad=0.0609 pd=0.71 as=0.0609 ps=0.71 w=0.42 l=0.35
X143 VSS d<6> hgu_cdac_8bit_array_3.drv<63:0> VSS sky130_fd_pr__nfet_01v8_lvt ad=0.0609 pd=0.71 as=0.0609 ps=0.71 w=0.42 l=0.35
X144 hgu_cdac_8bit_array_2.drv<31:0> db<5> VSS VSS sky130_fd_pr__nfet_01v8_lvt ad=0.0609 pd=0.71 as=0.0609 ps=0.71 w=0.42 l=0.35
X145 VSS d<5> hgu_cdac_8bit_array_3.drv<31:0> VSS sky130_fd_pr__nfet_01v8_lvt ad=0.0609 pd=0.71 as=0.0609 ps=0.71 w=0.42 l=0.35
X146 hgu_cdac_8bit_array_2.drv<63:0> db<6> VREF VDD sky130_fd_pr__pfet_01v8_lvt ad=0.122 pd=1.13 as=0.122 ps=1.13 w=0.84 l=0.35
X147 hgu_cdac_8bit_array_2.drv<31:0> db<5> VREF VDD sky130_fd_pr__pfet_01v8_lvt ad=0.122 pd=1.13 as=0.122 ps=1.13 w=0.84 l=0.35
X148 hgu_cdac_8bit_array_3.drv<63:0> d<6> VREF VDD sky130_fd_pr__pfet_01v8_lvt ad=0.122 pd=1.13 as=0.122 ps=1.13 w=0.84 l=0.35
X149 hgu_cdac_8bit_array_3.drv<63:0> d<6> VREF VDD sky130_fd_pr__pfet_01v8_lvt ad=0.122 pd=1.13 as=0.122 ps=1.13 w=0.84 l=0.35
X150 VREF d<5> hgu_cdac_8bit_array_3.drv<31:0> VDD sky130_fd_pr__pfet_01v8_lvt ad=0.122 pd=1.13 as=0.122 ps=1.13 w=0.84 l=0.35
X151 hgu_cdac_8bit_array_3.drv<31:0> d<5> VREF VDD sky130_fd_pr__pfet_01v8_lvt ad=0.122 pd=1.13 as=0.122 ps=1.13 w=0.84 l=0.35
X152 VSS db<6> hgu_cdac_8bit_array_2.drv<63:0> VSS sky130_fd_pr__nfet_01v8_lvt ad=0.0609 pd=0.71 as=0.0609 ps=0.71 w=0.42 l=0.35
X153 VREF db<6> hgu_cdac_8bit_array_2.drv<63:0> VDD sky130_fd_pr__pfet_01v8_lvt ad=0.122 pd=1.13 as=0.122 ps=1.13 w=0.84 l=0.35
X154 hgu_cdac_8bit_array_3.drv<63:0> d<6> VSS VSS sky130_fd_pr__nfet_01v8_lvt ad=0.0609 pd=0.71 as=0.0609 ps=0.71 w=0.42 l=0.35
X155 hgu_cdac_8bit_array_2.drv<7:0> db<3> VSS VSS sky130_fd_pr__nfet_01v8_lvt ad=0.0609 pd=0.71 as=0.0609 ps=0.71 w=0.42 l=0.35
X156 hgu_cdac_8bit_array_2.drv<31:0> db<5> VREF VDD sky130_fd_pr__pfet_01v8_lvt ad=0.122 pd=1.13 as=0.122 ps=1.13 w=0.84 l=0.35
X157 VSS db<5> hgu_cdac_8bit_array_2.drv<31:0> VSS sky130_fd_pr__nfet_01v8_lvt ad=0.0609 pd=0.71 as=0.0609 ps=0.71 w=0.42 l=0.35
X158 hgu_cdac_8bit_array_2.hgu_cdac_cap_4_0.CBOT db<2> VSS VSS sky130_fd_pr__nfet_01v8_lvt ad=0.0609 pd=0.71 as=0.122 ps=1.42 w=0.42 l=0.35
X159 VREF d<6> hgu_cdac_8bit_array_3.drv<63:0> VDD sky130_fd_pr__pfet_01v8_lvt ad=0.122 pd=1.13 as=0.122 ps=1.13 w=0.84 l=0.35
X160 VSS d<6> hgu_cdac_8bit_array_3.drv<63:0> VSS sky130_fd_pr__nfet_01v8_lvt ad=0.0609 pd=0.71 as=0.0609 ps=0.71 w=0.42 l=0.35
X161 hgu_cdac_8bit_array_3.drv<63:0> d<6> VREF VDD sky130_fd_pr__pfet_01v8_lvt ad=0.122 pd=1.13 as=0.122 ps=1.13 w=0.84 l=0.35
X162 VSS db<6> hgu_cdac_8bit_array_2.drv<63:0> VSS sky130_fd_pr__nfet_01v8_lvt ad=0.0609 pd=0.71 as=0.0609 ps=0.71 w=0.42 l=0.35
X163 hgu_cdac_8bit_array_3.drv<31:0> d<5> VREF VDD sky130_fd_pr__pfet_01v8_lvt ad=0.122 pd=1.13 as=0.122 ps=1.13 w=0.84 l=0.35
X164 VREF d<2> hgu_cdac_8bit_array_3.hgu_cdac_cap_4_0.CBOT VDD sky130_fd_pr__pfet_01v8_lvt ad=0.244 pd=2.26 as=0.122 ps=1.13 w=0.84 l=0.35
X165 VSS d<6> hgu_cdac_8bit_array_3.drv<63:0> VSS sky130_fd_pr__nfet_01v8_lvt ad=0.0609 pd=0.71 as=0.0609 ps=0.71 w=0.42 l=0.35
X166 VSS db<6> hgu_cdac_8bit_array_2.drv<63:0> VSS sky130_fd_pr__nfet_01v8_lvt ad=0.0609 pd=0.71 as=0.0609 ps=0.71 w=0.42 l=0.35
X167 VSS db<6> hgu_cdac_8bit_array_2.drv<63:0> VSS sky130_fd_pr__nfet_01v8_lvt ad=0.0609 pd=0.71 as=0.0609 ps=0.71 w=0.42 l=0.35
X168 hgu_cdac_8bit_array_3.drv<31:0> d<5> VSS VSS sky130_fd_pr__nfet_01v8_lvt ad=0.0609 pd=0.71 as=0.0609 ps=0.71 w=0.42 l=0.35
X169 VSS db<5> hgu_cdac_8bit_array_2.drv<31:0> VSS sky130_fd_pr__nfet_01v8_lvt ad=0.0609 pd=0.71 as=0.0609 ps=0.71 w=0.42 l=0.35
X170 VREF db<6> hgu_cdac_8bit_array_2.drv<63:0> VDD sky130_fd_pr__pfet_01v8_lvt ad=0.122 pd=1.13 as=0.122 ps=1.13 w=0.84 l=0.35
X171 VREF d<6> hgu_cdac_8bit_array_3.drv<63:0> VDD sky130_fd_pr__pfet_01v8_lvt ad=0.122 pd=1.13 as=0.122 ps=1.13 w=0.84 l=0.35
X172 hgu_cdac_8bit_array_3.drv<15:0> d<4> VREF VDD sky130_fd_pr__pfet_01v8_lvt ad=0.122 pd=1.13 as=0.122 ps=1.13 w=0.84 l=0.35
X173 VREF d<5> hgu_cdac_8bit_array_3.drv<31:0> VDD sky130_fd_pr__pfet_01v8_lvt ad=0.122 pd=1.13 as=0.122 ps=1.13 w=0.84 l=0.35
X174 hgu_cdac_8bit_array_2.drv<63:0> db<6> VSS VSS sky130_fd_pr__nfet_01v8_lvt ad=0.0609 pd=0.71 as=0.0609 ps=0.71 w=0.42 l=0.35
X175 VSS db<4> hgu_cdac_8bit_array_2.drv<15:0> VSS sky130_fd_pr__nfet_01v8_lvt ad=0.0609 pd=0.71 as=0.0609 ps=0.71 w=0.42 l=0.35
X176 hgu_cdac_8bit_array_3.drv<63:0> d<6> VREF VDD sky130_fd_pr__pfet_01v8_lvt ad=0.122 pd=1.13 as=0.122 ps=1.13 w=0.84 l=0.35
X177 hgu_cdac_8bit_array_3.drv<15:0> d<4> VSS VSS sky130_fd_pr__nfet_01v8_lvt ad=0.0609 pd=0.71 as=0.0609 ps=0.71 w=0.42 l=0.35
X178 VSS d<6> hgu_cdac_8bit_array_3.drv<63:0> VSS sky130_fd_pr__nfet_01v8_lvt ad=0.0609 pd=0.71 as=0.0609 ps=0.71 w=0.42 l=0.35
X179 VREF db<5> hgu_cdac_8bit_array_2.drv<31:0> VDD sky130_fd_pr__pfet_01v8_lvt ad=0.122 pd=1.13 as=0.122 ps=1.13 w=0.84 l=0.35
X180 hgu_cdac_8bit_array_3.drv<31:0> d<5> VREF VDD sky130_fd_pr__pfet_01v8_lvt ad=0.122 pd=1.13 as=0.122 ps=1.13 w=0.84 l=0.35
X181 VSS d<5> hgu_cdac_8bit_array_3.drv<31:0> VSS sky130_fd_pr__nfet_01v8_lvt ad=0.0609 pd=0.71 as=0.0609 ps=0.71 w=0.42 l=0.35
X182 VSS d<6> hgu_cdac_8bit_array_3.drv<63:0> VSS sky130_fd_pr__nfet_01v8_lvt ad=0.0609 pd=0.71 as=0.0609 ps=0.71 w=0.42 l=0.35
X183 VREF db<6> hgu_cdac_8bit_array_2.drv<63:0> VDD sky130_fd_pr__pfet_01v8_lvt ad=0.122 pd=1.13 as=0.122 ps=1.13 w=0.84 l=0.35
X184 VSS db<3> hgu_cdac_8bit_array_2.drv<7:0> VSS sky130_fd_pr__nfet_01v8_lvt ad=0.0609 pd=0.71 as=0.0609 ps=0.71 w=0.42 l=0.35
X185 VSS d<6> hgu_cdac_8bit_array_3.drv<63:0> VSS sky130_fd_pr__nfet_01v8_lvt ad=0.0609 pd=0.71 as=0.0609 ps=0.71 w=0.42 l=0.35
X186 hgu_cdac_8bit_array_3.drv<15:0> d<4> VREF VDD sky130_fd_pr__pfet_01v8_lvt ad=0.122 pd=1.13 as=0.122 ps=1.13 w=0.84 l=0.35
X187 VREF db<6> hgu_cdac_8bit_array_2.drv<63:0> VDD sky130_fd_pr__pfet_01v8_lvt ad=0.122 pd=1.13 as=0.122 ps=1.13 w=0.84 l=0.35
X188 VSS d<4> hgu_cdac_8bit_array_3.drv<15:0> VSS sky130_fd_pr__nfet_01v8_lvt ad=0.0609 pd=0.71 as=0.0609 ps=0.71 w=0.42 l=0.35
X189 hgu_cdac_8bit_array_2.drv<63:0> db<6> VSS VSS sky130_fd_pr__nfet_01v8_lvt ad=0.0609 pd=0.71 as=0.0609 ps=0.71 w=0.42 l=0.35
X190 VSS db<4> hgu_cdac_8bit_array_2.drv<15:0> VSS sky130_fd_pr__nfet_01v8_lvt ad=0.0609 pd=0.71 as=0.0609 ps=0.71 w=0.42 l=0.35
X191 hgu_cdac_8bit_array_3.drv<7:0> d<3> VREF VDD sky130_fd_pr__pfet_01v8_lvt ad=0.122 pd=1.13 as=0.122 ps=1.13 w=0.84 l=0.35
X192 VREF db<4> hgu_cdac_8bit_array_2.drv<15:0> VDD sky130_fd_pr__pfet_01v8_lvt ad=0.122 pd=1.13 as=0.122 ps=1.13 w=0.84 l=0.35
X193 VREF db<5> hgu_cdac_8bit_array_2.drv<31:0> VDD sky130_fd_pr__pfet_01v8_lvt ad=0.122 pd=1.13 as=0.122 ps=1.13 w=0.84 l=0.35
X194 VREF d<6> hgu_cdac_8bit_array_3.drv<63:0> VDD sky130_fd_pr__pfet_01v8_lvt ad=0.122 pd=1.13 as=0.122 ps=1.13 w=0.84 l=0.35
X195 VSS d<6> hgu_cdac_8bit_array_3.drv<63:0> VSS sky130_fd_pr__nfet_01v8_lvt ad=0.0609 pd=0.71 as=0.0609 ps=0.71 w=0.42 l=0.35
X196 VSS d<5> hgu_cdac_8bit_array_3.drv<31:0> VSS sky130_fd_pr__nfet_01v8_lvt ad=0.0609 pd=0.71 as=0.0609 ps=0.71 w=0.42 l=0.35
X197 hgu_cdac_8bit_array_2.drv<63:0> db<6> VSS VSS sky130_fd_pr__nfet_01v8_lvt ad=0.0609 pd=0.71 as=0.0609 ps=0.71 w=0.42 l=0.35
X198 hgu_cdac_8bit_array_2.drv<63:0> db<6> VREF VDD sky130_fd_pr__pfet_01v8_lvt ad=0.122 pd=1.13 as=0.122 ps=1.13 w=0.84 l=0.35
X199 VSS d<6> hgu_cdac_8bit_array_3.drv<63:0> VSS sky130_fd_pr__nfet_01v8_lvt ad=0.0609 pd=0.71 as=0.0609 ps=0.71 w=0.42 l=0.35
X200 hgu_cdac_8bit_array_2.drv<1:0> db<1> VREF VDD sky130_fd_pr__pfet_01v8_lvt ad=0.122 pd=1.13 as=0.244 ps=2.26 w=0.84 l=0.35
X201 hgu_cdac_8bit_array_2.drv<31:0> db<5> VSS VSS sky130_fd_pr__nfet_01v8_lvt ad=0.0609 pd=0.71 as=0.0609 ps=0.71 w=0.42 l=0.35
X202 hgu_cdac_8bit_array_3.drv<63:0> d<6> VSS VSS sky130_fd_pr__nfet_01v8_lvt ad=0.0609 pd=0.71 as=0.0609 ps=0.71 w=0.42 l=0.35
X203 hgu_cdac_8bit_array_3.drv<7:0> d<3> VREF VDD sky130_fd_pr__pfet_01v8_lvt ad=0.122 pd=1.13 as=0.122 ps=1.13 w=0.84 l=0.35
X204 hgu_cdac_8bit_array_2.drv<7:0> db<3> VREF VDD sky130_fd_pr__pfet_01v8_lvt ad=0.122 pd=1.13 as=0.122 ps=1.13 w=0.84 l=0.35
X205 VSS d<1> hgu_cdac_8bit_array_3.drv<1:0> VSS sky130_fd_pr__nfet_01v8_lvt ad=0.122 pd=1.42 as=0.0609 ps=0.71 w=0.42 l=0.35
X206 VREF db<6> hgu_cdac_8bit_array_2.drv<63:0> VDD sky130_fd_pr__pfet_01v8_lvt ad=0.122 pd=1.13 as=0.122 ps=1.13 w=0.84 l=0.35
X207 hgu_cdac_8bit_array_3.drv<63:0> d<6> VSS VSS sky130_fd_pr__nfet_01v8_lvt ad=0.0609 pd=0.71 as=0.0609 ps=0.71 w=0.42 l=0.35
X208 hgu_cdac_8bit_array_2.drv<63:0> db<6> VSS VSS sky130_fd_pr__nfet_01v8_lvt ad=0.0609 pd=0.71 as=0.0609 ps=0.71 w=0.42 l=0.35
X209 VSS d<5> hgu_cdac_8bit_array_3.drv<31:0> VSS sky130_fd_pr__nfet_01v8_lvt ad=0.0609 pd=0.71 as=0.0609 ps=0.71 w=0.42 l=0.35
X210 hgu_cdac_8bit_array_2.drv<63:0> db<6> VREF VDD sky130_fd_pr__pfet_01v8_lvt ad=0.122 pd=1.13 as=0.122 ps=1.13 w=0.84 l=0.35
X211 hgu_cdac_8bit_array_3.hgu_cdac_cap_4_0.CBOT d<2> VSS VSS sky130_fd_pr__nfet_01v8_lvt ad=0.0609 pd=0.71 as=0.122 ps=1.42 w=0.42 l=0.35
X212 VSS d<6> hgu_cdac_8bit_array_3.drv<63:0> VSS sky130_fd_pr__nfet_01v8_lvt ad=0.122 pd=1.42 as=0.0609 ps=0.71 w=0.42 l=0.35
X213 hgu_cdac_8bit_array_2.drv<63:0> db<6> VSS VSS sky130_fd_pr__nfet_01v8_lvt ad=0.0609 pd=0.71 as=0.0609 ps=0.71 w=0.42 l=0.35
X214 VSS d<5> hgu_cdac_8bit_array_3.drv<31:0> VSS sky130_fd_pr__nfet_01v8_lvt ad=0.0609 pd=0.71 as=0.0609 ps=0.71 w=0.42 l=0.35
X215 hgu_cdac_8bit_array_2.drv<31:0> db<5> VSS VSS sky130_fd_pr__nfet_01v8_lvt ad=0.0609 pd=0.71 as=0.0609 ps=0.71 w=0.42 l=0.35
X216 hgu_cdac_8bit_array_3.drv<63:0> d<6> VREF VDD sky130_fd_pr__pfet_01v8_lvt ad=0.122 pd=1.13 as=0.122 ps=1.13 w=0.84 l=0.35
X217 VSS db<5> hgu_cdac_8bit_array_2.drv<31:0> VSS sky130_fd_pr__nfet_01v8_lvt ad=0.0609 pd=0.71 as=0.0609 ps=0.71 w=0.42 l=0.35
X218 VSS db<6> hgu_cdac_8bit_array_2.drv<63:0> VSS sky130_fd_pr__nfet_01v8_lvt ad=0.0609 pd=0.71 as=0.0609 ps=0.71 w=0.42 l=0.35
X219 VREF db<6> hgu_cdac_8bit_array_2.drv<63:0> VDD sky130_fd_pr__pfet_01v8_lvt ad=0.122 pd=1.13 as=0.122 ps=1.13 w=0.84 l=0.35
X220 VREF d<6> hgu_cdac_8bit_array_3.drv<63:0> VDD sky130_fd_pr__pfet_01v8_lvt ad=0.122 pd=1.13 as=0.122 ps=1.13 w=0.84 l=0.35
X221 hgu_cdac_8bit_array_2.drv<31:0> db<5> VSS VSS sky130_fd_pr__nfet_01v8_lvt ad=0.0609 pd=0.71 as=0.0609 ps=0.71 w=0.42 l=0.35
X222 VREF d<5> hgu_cdac_8bit_array_3.drv<31:0> VDD sky130_fd_pr__pfet_01v8_lvt ad=0.122 pd=1.13 as=0.122 ps=1.13 w=0.84 l=0.35
X223 hgu_cdac_8bit_array_2.drv<63:0> db<6> VSS VSS sky130_fd_pr__nfet_01v8_lvt ad=0.0609 pd=0.71 as=0.0609 ps=0.71 w=0.42 l=0.35
X224 VSS db<1> hgu_cdac_8bit_array_2.drv<1:0> VSS sky130_fd_pr__nfet_01v8_lvt ad=0.122 pd=1.42 as=0.0609 ps=0.71 w=0.42 l=0.35
X225 hgu_cdac_8bit_array_2.drv<63:0> db<6> VSS VSS sky130_fd_pr__nfet_01v8_lvt ad=0.0609 pd=0.71 as=0.0609 ps=0.71 w=0.42 l=0.35
X226 hgu_cdac_8bit_array_2.drv<63:0> db<6> VSS VSS sky130_fd_pr__nfet_01v8_lvt ad=0.0609 pd=0.71 as=0.0609 ps=0.71 w=0.42 l=0.35
X227 VSS db<3> hgu_cdac_8bit_array_2.drv<7:0> VSS sky130_fd_pr__nfet_01v8_lvt ad=0.0609 pd=0.71 as=0.0609 ps=0.71 w=0.42 l=0.35
X228 VREF db<5> hgu_cdac_8bit_array_2.drv<31:0> VDD sky130_fd_pr__pfet_01v8_lvt ad=0.122 pd=1.13 as=0.122 ps=1.13 w=0.84 l=0.35
X229 VREF d<6> hgu_cdac_8bit_array_3.drv<63:0> VDD sky130_fd_pr__pfet_01v8_lvt ad=0.122 pd=1.13 as=0.122 ps=1.13 w=0.84 l=0.35
X230 hgu_cdac_8bit_array_2.drv<63:0> db<6> VSS VSS sky130_fd_pr__nfet_01v8_lvt ad=0.0609 pd=0.71 as=0.0609 ps=0.71 w=0.42 l=0.35
X231 hgu_cdac_8bit_array_2.drv<63:0> db<6> VREF VDD sky130_fd_pr__pfet_01v8_lvt ad=0.122 pd=1.13 as=0.122 ps=1.13 w=0.84 l=0.35