* NGSPICE file created from hgu_delay_flat.ext - technology: sky130A

.subckt hgu_delay_flat out sample_delay_offset in sample_code2[3] sample_code3[3]
+ sample_code1[1] sample_code1[0] sample_code3[0] sample_code3[1] sample_code3[2]
+ sample_code2[1] sample_code2[2] sample_code1[2] sample_code0[2] sample_code0[1]
+ sample_code0[0] sample_code0[3] sample_code1[3] sample_code2[0] VSS VDD
X0 x2.x6.SW sample_delay_offset.t0 VDD.t58 VDD.t57 sky130_fd_pr__pfet_01v8_hvt ad=0.26 pd=2.52 as=0.26 ps=2.52 w=1 l=0.15
X1 VSS.t38 x3.IN a_6749_n1239# VDD.t41 sky130_fd_pr__pfet_01v8_hvt ad=0.0693 pd=0.75 as=0.13 ps=1.46 w=0.42 l=0.15
X2 a_7436_1812# x1.IN a_7364_1812# VSS.t7 sky130_fd_pr__nfet_01v8 ad=0.122 pd=1.42 as=0.0441 ps=0.63 w=0.42 l=0.15
X3 x2.x9.output_stack x2.x10.Y.t2 x2.x5[7].floating.t7 VDD.t60 sky130_fd_pr__pfet_01v8 ad=0.101 pd=0.9 as=0.122 ps=1.42 w=0.42 l=0.15
X4 a_6465_2476# x4.x9.output_stack x1.IN VDD.t12 sky130_fd_pr__pfet_01v8_hvt ad=0.0651 pd=0.73 as=0.122 ps=1.42 w=0.42 l=0.15
X5 a_727_1536# in.t0 a_655_1674# VSS.t0 sky130_fd_pr__nfet_01v8 ad=0.122 pd=1.42 as=0.0441 ps=0.63 w=0.42 l=0.15
X6 a_655_1122# in.t1 a_567_1122# VSS.t50 sky130_fd_pr__nfet_01v8 ad=0.0441 pd=0.63 as=0.122 ps=1.42 w=0.42 l=0.15
X7 x1.x9.output_stack sample_code1[1].t0 x1.x3[1].floating VSS.t31 sky130_fd_pr__nfet_01v8 ad=0.0966 pd=0.88 as=0.122 ps=1.42 w=0.42 l=0.15
X8 a_7389_3063# x1.IN a_7301_2925# VDD.t19 sky130_fd_pr__pfet_01v8_hvt ad=0.122 pd=1.42 as=0.122 ps=1.42 w=0.42 l=0.15
X9 a_6058_n161# x3.IN a_5970_n161# VSS.t33 sky130_fd_pr__nfet_01v8 ad=0.0441 pd=0.63 as=0.122 ps=1.42 w=0.42 l=0.15
X10 VDD.t77 sample_code2[3].t0 x2.x10.Y.t1 VDD.t76 sky130_fd_pr__pfet_01v8_hvt ad=0.26 pd=2.52 as=0.26 ps=2.52 w=1 l=0.15
X11 a_12767_n299# x2.IN a_12679_n437# VSS.t18 sky130_fd_pr__nfet_01v8 ad=0.0441 pd=0.63 as=0.122 ps=1.42 w=0.42 l=0.15
X12 VSS.t62 sample_delay_offset.t1 x4.x6.SW VSS.t61 sky130_fd_pr__nfet_01v8 ad=0.169 pd=1.82 as=0.169 ps=1.82 w=0.65 l=0.15
X13 x4.x9.output_stack x4.x10.Y.t2 x4.x5[7].floating.t7 VDD.t3 sky130_fd_pr__pfet_01v8 ad=0.101 pd=0.9 as=0.122 ps=1.42 w=0.42 l=0.15
X14 a_12839_n851# x2.IN a_12767_n713# VSS.t19 sky130_fd_pr__nfet_01v8 ad=0.122 pd=1.42 as=0.0441 ps=0.63 w=0.42 l=0.15
X15 a_7389_3339# x1.IN a_7301_3201# VDD.t18 sky130_fd_pr__pfet_01v8_hvt ad=0.122 pd=1.42 as=0.122 ps=1.42 w=0.42 l=0.15
X16 x2.x3[1].floating sample_code2[1].t0 x2.x9.output_stack VSS.t49 sky130_fd_pr__nfet_01v8 ad=0.122 pd=1.42 as=0.0966 ps=0.88 w=0.42 l=0.15
X17 x3.x4[3].floating sample_code3[2].t0 x3.x9.output_stack VSS.t63 sky130_fd_pr__nfet_01v8 ad=0.122 pd=1.42 as=0.0966 ps=0.88 w=0.42 l=0.15
X18 a_6058_n437# x3.IN a_5970_n437# VSS.t33 sky130_fd_pr__nfet_01v8 ad=0.0441 pd=0.63 as=0.122 ps=1.42 w=0.42 l=0.15
X19 a_6465_2135# x1.IN VDD.t17 VSS.t12 sky130_fd_pr__nfet_01v8 ad=0.13 pd=1.46 as=0.0693 ps=0.75 w=0.42 l=0.15
X20 a_6749_n1036# x3.IN VDD.t40 VSS.t37 sky130_fd_pr__nfet_01v8 ad=0.0651 pd=0.73 as=0.0693 ps=0.75 w=0.42 l=0.15
X21 x4.x9.output_stack sample_delay_offset.t2 x4.x7.floating VSS.t60 sky130_fd_pr__nfet_01v8 ad=0.122 pd=1.42 as=0.122 ps=1.42 w=0.42 l=0.15
X22 out.t1 x3.x9.output_stack a_40_n1239# VDD.t7 sky130_fd_pr__pfet_01v8_hvt ad=0.122 pd=1.42 as=0.0651 ps=0.73 w=0.42 l=0.15
X23 x3.x4[3].floating sample_code3[2].t1 x3.x9.output_stack VSS.t65 sky130_fd_pr__nfet_01v8 ad=0.122 pd=1.42 as=0.0966 ps=0.88 w=0.42 l=0.15
X24 a_7436_1260# x1.IN a_7364_1398# VSS.t7 sky130_fd_pr__nfet_01v8 ad=0.122 pd=1.42 as=0.0441 ps=0.63 w=0.42 l=0.15
X25 x1.x9.output_stack sample_delay_offset.t3 x1.x7.floating VSS.t59 sky130_fd_pr__nfet_01v8 ad=0.122 pd=1.42 as=0.122 ps=1.42 w=0.42 l=0.15
X26 a_6105_n2378# x3.IN VDD.t39 VDD.t36 sky130_fd_pr__pfet_01v8_hvt ad=0.122 pd=1.42 as=0.122 ps=1.42 w=0.42 l=0.15
X27 a_680_3063# in.t2 a_592_3201# VDD.t33 sky130_fd_pr__pfet_01v8_hvt ad=0.122 pd=1.42 as=0.122 ps=1.42 w=0.42 l=0.15
X28 x1.x9.output_stack x1.x10.Y.t2 x1.x5[7].floating.t7 VDD.t2 sky130_fd_pr__pfet_01v8 ad=0.101 pd=0.9 as=0.122 ps=1.42 w=0.42 l=0.15
X29 x4.x3[1].floating sample_code0[1].t0 x4.x9.output_stack VSS.t14 sky130_fd_pr__nfet_01v8 ad=0.122 pd=1.42 as=0.0966 ps=0.88 w=0.42 l=0.15
X30 VDD.t32 x2.IN a_13174_2135# VSS.t23 sky130_fd_pr__nfet_01v8 ad=0.0693 pd=0.75 as=0.0651 ps=0.73 w=0.42 l=0.15
X31 x3.x9.output_stack x3.x10.Y.t2 x3.x5[7].floating.t7 VDD.t50 sky130_fd_pr__pfet_01v8 ad=0.101 pd=0.9 as=0.122 ps=1.42 w=0.42 l=0.15
X32 x1.x5[7].floating.t6 x1.x10.Y.t3 x1.x9.output_stack VDD.t2 sky130_fd_pr__pfet_01v8 ad=0.122 pd=1.42 as=0.101 ps=0.9 w=0.42 l=0.15
X33 x4.x9.output_stack sample_code0[1].t1 x4.x3[1].floating VSS.t66 sky130_fd_pr__nfet_01v8 ad=0.0966 pd=0.88 as=0.122 ps=1.42 w=0.42 l=0.15
X34 a_7364_2088# x1.IN a_7276_1950# VSS.t6 sky130_fd_pr__nfet_01v8 ad=0.0441 pd=0.63 as=0.122 ps=1.42 w=0.42 l=0.15
X35 a_655_1812# in.t3 a_567_1674# VSS.t50 sky130_fd_pr__nfet_01v8 ad=0.0441 pd=0.63 as=0.122 ps=1.42 w=0.42 l=0.15
X36 a_6058_n851# x3.IN x3.x9.output_stack VSS.t33 sky130_fd_pr__nfet_01v8 ad=0.0441 pd=0.63 as=0.122 ps=1.42 w=0.42 l=0.15
X37 a_12839_n299# x2.IN a_12767_n299# VSS.t19 sky130_fd_pr__nfet_01v8 ad=0.122 pd=1.42 as=0.0441 ps=0.63 w=0.42 l=0.15
X38 x1.x5[7].floating.t5 x1.x10.Y.t4 x1.x9.output_stack VDD.t2 sky130_fd_pr__pfet_01v8 ad=0.122 pd=1.42 as=0.101 ps=0.9 w=0.42 l=0.15
X39 x1.x9.output_stack x1.IN a_7301_2925# VDD.t16 sky130_fd_pr__pfet_01v8_hvt ad=0.122 pd=1.42 as=0.122 ps=1.42 w=0.42 l=0.15
X40 a_727_1260# in.t4 a_655_1260# VSS.t0 sky130_fd_pr__nfet_01v8 ad=0.122 pd=1.42 as=0.0441 ps=0.63 w=0.42 l=0.15
X41 x3.x6.floating x3.x6.SW x3.x9.output_stack VDD.t65 sky130_fd_pr__pfet_01v8 ad=0.122 pd=1.42 as=0.122 ps=1.42 w=0.42 l=0.15
X42 a_13174_2476# x2.IN VSS.t22 VDD.t31 sky130_fd_pr__pfet_01v8_hvt ad=0.13 pd=1.46 as=0.0693 ps=0.75 w=0.42 l=0.15
X43 a_727_1536# in.t5 a_655_1536# VSS.t0 sky130_fd_pr__nfet_01v8 ad=0.122 pd=1.42 as=0.0441 ps=0.63 w=0.42 l=0.15
X44 x3.x9.output_stack sample_code3[2].t2 x3.x4[3].floating VSS.t68 sky130_fd_pr__nfet_01v8 ad=0.0966 pd=0.88 as=0.122 ps=1.42 w=0.42 l=0.15
X45 x4.x10.Y.t1 sample_code0[3].t0 VSS.t25 VSS.t24 sky130_fd_pr__nfet_01v8 ad=0.169 pd=1.82 as=0.169 ps=1.82 w=0.65 l=0.15
X46 x2.x9.output_stack x2.x10.Y.t3 x2.x5[7].floating.t6 VDD.t62 sky130_fd_pr__pfet_01v8 ad=0.101 pd=0.9 as=0.122 ps=1.42 w=0.42 l=0.15
X47 x3.x5[7].floating.t6 x3.x10.Y.t3 x3.x9.output_stack VDD.t34 sky130_fd_pr__pfet_01v8 ad=0.122 pd=1.42 as=0.101 ps=0.9 w=0.42 l=0.15
X48 a_6130_n575# x3.IN a_6058_n575# VSS.t32 sky130_fd_pr__nfet_01v8 ad=0.122 pd=1.42 as=0.0441 ps=0.63 w=0.42 l=0.15
X49 a_6105_n2102# x3.IN a_6017_n1964# VDD.t36 sky130_fd_pr__pfet_01v8_hvt ad=0.122 pd=1.42 as=0.122 ps=1.42 w=0.42 l=0.15
X50 x3.x9.output_stack sample_code3[2].t3 x3.x4[3].floating VSS.t83 sky130_fd_pr__nfet_01v8 ad=0.0966 pd=0.88 as=0.122 ps=1.42 w=0.42 l=0.15
X51 x1.x10.Y.t0 sample_code1[3].t0 VDD.t69 VDD.t68 sky130_fd_pr__pfet_01v8_hvt ad=0.26 pd=2.52 as=0.26 ps=2.52 w=1 l=0.15
X52 a_655_1398# in.t6 a_567_1398# VSS.t50 sky130_fd_pr__nfet_01v8 ad=0.0441 pd=0.63 as=0.122 ps=1.42 w=0.42 l=0.15
X53 x3.x6.SW sample_delay_offset.t4 VSS.t58 VSS.t57 sky130_fd_pr__nfet_01v8 ad=0.169 pd=1.82 as=0.169 ps=1.82 w=0.65 l=0.15
X54 x3.x5[7].floating.t5 x3.x10.Y.t4 x3.x9.output_stack VDD.t42 sky130_fd_pr__pfet_01v8 ad=0.122 pd=1.42 as=0.101 ps=0.9 w=0.42 l=0.15
X55 VDD.t15 x1.IN a_6465_2135# VSS.t11 sky130_fd_pr__nfet_01v8 ad=0.0693 pd=0.75 as=0.0651 ps=0.73 w=0.42 l=0.15
X56 x3.x5[7].floating.t4 x3.x10.Y.t5 x3.x9.output_stack VDD.t1 sky130_fd_pr__pfet_01v8 ad=0.122 pd=1.42 as=0.101 ps=0.9 w=0.42 l=0.15
X57 x3.IN x2.x9.output_stack a_6749_n1036# VSS.t39 sky130_fd_pr__nfet_01v8 ad=0.122 pd=1.42 as=0.0651 ps=0.73 w=0.42 l=0.15
X58 a_7364_1674# x1.IN a_7276_1674# VSS.t6 sky130_fd_pr__nfet_01v8 ad=0.0441 pd=0.63 as=0.122 ps=1.42 w=0.42 l=0.15
X59 x4.x9.output_stack sample_code0[2].t0 x4.x4[3].floating VSS.t46 sky130_fd_pr__nfet_01v8 ad=0.0966 pd=0.88 as=0.122 ps=1.42 w=0.42 l=0.15
X60 x1.x9.output_stack x1.IN a_7364_2088# VSS.t7 sky130_fd_pr__nfet_01v8 ad=0.122 pd=1.42 as=0.0441 ps=0.63 w=0.42 l=0.15
X61 x4.x5[7].floating.t6 x4.x10.Y.t3 x4.x9.output_stack VDD.t3 sky130_fd_pr__pfet_01v8 ad=0.122 pd=1.42 as=0.101 ps=0.9 w=0.42 l=0.15
X62 a_6465_2476# x1.IN VSS.t10 VDD.t12 sky130_fd_pr__pfet_01v8_hvt ad=0.13 pd=1.46 as=0.0693 ps=0.75 w=0.42 l=0.15
X63 a_727_1812# in.t7 a_655_1950# VSS.t0 sky130_fd_pr__nfet_01v8 ad=0.122 pd=1.42 as=0.0441 ps=0.63 w=0.42 l=0.15
X64 VDD.t44 x2.x9.output_stack a_6749_n1239# VDD.t43 sky130_fd_pr__pfet_01v8_hvt ad=0.122 pd=1.42 as=0.122 ps=1.42 w=0.42 l=0.15
X65 a_6749_n1239# x3.IN VSS.t36 VDD.t38 sky130_fd_pr__pfet_01v8_hvt ad=0.0651 pd=0.73 as=0.0693 ps=0.75 w=0.42 l=0.15
X66 x3.x5[7].floating.t3 x3.x10.Y.t6 x3.x9.output_stack VDD.t47 sky130_fd_pr__pfet_01v8 ad=0.122 pd=1.42 as=0.101 ps=0.9 w=0.42 l=0.15
X67 VSS.t27 sample_code3[3].t0 x3.x10.Y.t0 VSS.t26 sky130_fd_pr__nfet_01v8 ad=0.169 pd=1.82 as=0.169 ps=1.82 w=0.65 l=0.15
X68 x1.x9.output_stack sample_code1[2].t0 x1.x4[3].floating VSS.t44 sky130_fd_pr__nfet_01v8 ad=0.0966 pd=0.88 as=0.122 ps=1.42 w=0.42 l=0.15
X69 a_12814_n2102# x2.IN a_12726_n2240# VDD.t28 sky130_fd_pr__pfet_01v8_hvt ad=0.122 pd=1.42 as=0.122 ps=1.42 w=0.42 l=0.15
X70 a_6105_n2378# x3.IN a_6017_n2240# VDD.t36 sky130_fd_pr__pfet_01v8_hvt ad=0.122 pd=1.42 as=0.122 ps=1.42 w=0.42 l=0.15
X71 a_12767_n575# x2.IN a_12679_n713# VSS.t18 sky130_fd_pr__nfet_01v8 ad=0.0441 pd=0.63 as=0.122 ps=1.42 w=0.42 l=0.15
X72 VDD.t14 x1.IN a_7301_3477# VDD.t13 sky130_fd_pr__pfet_01v8_hvt ad=0.122 pd=1.42 as=0.122 ps=1.42 w=0.42 l=0.15
X73 x2.x4[3].floating sample_code2[2].t0 x2.x9.output_stack VSS.t72 sky130_fd_pr__nfet_01v8 ad=0.122 pd=1.42 as=0.0966 ps=0.88 w=0.42 l=0.15
X74 a_6058_n713# x3.IN a_5970_n713# VSS.t33 sky130_fd_pr__nfet_01v8 ad=0.0441 pd=0.63 as=0.122 ps=1.42 w=0.42 l=0.15
X75 VSS.t81 in.t8 a_655_1122# VSS.t0 sky130_fd_pr__nfet_01v8 ad=0.122 pd=1.42 as=0.0441 ps=0.63 w=0.42 l=0.15
X76 x1.x5[7].floating.t4 x1.x10.Y.t5 x1.x9.output_stack VDD.t2 sky130_fd_pr__pfet_01v8 ad=0.122 pd=1.42 as=0.101 ps=0.9 w=0.42 l=0.15
X77 a_680_3339# in.t9 a_592_3477# VDD.t61 sky130_fd_pr__pfet_01v8_hvt ad=0.122 pd=1.42 as=0.122 ps=1.42 w=0.42 l=0.15
X78 a_13174_2476# x1.x9.output_stack VDD.t67 VDD.t66 sky130_fd_pr__pfet_01v8_hvt ad=0.122 pd=1.42 as=0.122 ps=1.42 w=0.42 l=0.15
X79 VSS.t21 x2.IN a_13174_2476# VDD.t31 sky130_fd_pr__pfet_01v8_hvt ad=0.0693 pd=0.75 as=0.0651 ps=0.73 w=0.42 l=0.15
X80 a_12814_n1826# x2.IN x2.x9.output_stack VDD.t28 sky130_fd_pr__pfet_01v8_hvt ad=0.122 pd=1.42 as=0.122 ps=1.42 w=0.42 l=0.15
X81 x2.x4[3].floating sample_code2[2].t1 x2.x9.output_stack VSS.t1 sky130_fd_pr__nfet_01v8 ad=0.122 pd=1.42 as=0.0966 ps=0.88 w=0.42 l=0.15
X82 a_6130_n299# x3.IN a_6058_n161# VSS.t32 sky130_fd_pr__nfet_01v8 ad=0.122 pd=1.42 as=0.0441 ps=0.63 w=0.42 l=0.15
X83 x1.x4[3].floating sample_code1[2].t1 x1.x9.output_stack VSS.t73 sky130_fd_pr__nfet_01v8 ad=0.122 pd=1.42 as=0.0966 ps=0.88 w=0.42 l=0.15
X84 VDD.t56 sample_delay_offset.t5 x1.x6.SW VDD.t55 sky130_fd_pr__pfet_01v8_hvt ad=0.26 pd=2.52 as=0.26 ps=2.52 w=1 l=0.15
X85 x4.x9.output_stack x4.x10.Y.t4 x4.x5[7].floating.t5 VDD.t3 sky130_fd_pr__pfet_01v8 ad=0.101 pd=0.9 as=0.122 ps=1.42 w=0.42 l=0.15
X86 a_7436_1536# x1.IN a_7364_1674# VSS.t7 sky130_fd_pr__nfet_01v8 ad=0.122 pd=1.42 as=0.0441 ps=0.63 w=0.42 l=0.15
X87 a_6130_n23# x3.IN a_6058_n23# VSS.t32 sky130_fd_pr__nfet_01v8 ad=0.122 pd=1.42 as=0.0441 ps=0.63 w=0.42 l=0.15
X88 a_6130_n575# x3.IN a_6058_n437# VSS.t32 sky130_fd_pr__nfet_01v8 ad=0.122 pd=1.42 as=0.0441 ps=0.63 w=0.42 l=0.15
X89 x2.x7.floating sample_delay_offset.t6 x2.x9.output_stack VSS.t56 sky130_fd_pr__nfet_01v8 ad=0.122 pd=1.42 as=0.122 ps=1.42 w=0.42 l=0.15
X90 x3.x9.output_stack sample_code3[0].t0 x3.x2.floating VSS.t77 sky130_fd_pr__nfet_01v8 ad=0.124 pd=1.43 as=0.122 ps=1.42 w=0.42 l=0.15
X91 a_655_2088# in.t10 a_567_1950# VSS.t50 sky130_fd_pr__nfet_01v8 ad=0.0441 pd=0.63 as=0.122 ps=1.42 w=0.42 l=0.15
X92 a_7364_1260# x1.IN a_7276_1122# VSS.t6 sky130_fd_pr__nfet_01v8 ad=0.0441 pd=0.63 as=0.122 ps=1.42 w=0.42 l=0.15
X93 a_12839_n23# x2.IN a_12767_n23# VSS.t19 sky130_fd_pr__nfet_01v8 ad=0.122 pd=1.42 as=0.0441 ps=0.63 w=0.42 l=0.15
X94 a_6105_n1826# x3.IN a_6017_n1964# VDD.t36 sky130_fd_pr__pfet_01v8_hvt ad=0.122 pd=1.42 as=0.122 ps=1.42 w=0.42 l=0.15
X95 a_12839_n575# x2.IN a_12767_n575# VSS.t19 sky130_fd_pr__nfet_01v8 ad=0.122 pd=1.42 as=0.0441 ps=0.63 w=0.42 l=0.15
X96 a_7364_1536# x1.IN a_7276_1398# VSS.t6 sky130_fd_pr__nfet_01v8 ad=0.0441 pd=0.63 as=0.122 ps=1.42 w=0.42 l=0.15
X97 VDD.t75 out.t2 a_40_n1036# VSS.t78 sky130_fd_pr__nfet_01v8 ad=0.0693 pd=0.75 as=0.13 ps=1.46 w=0.42 l=0.15
X98 a_6058_n299# x3.IN a_5970_n437# VSS.t33 sky130_fd_pr__nfet_01v8 ad=0.0441 pd=0.63 as=0.122 ps=1.42 w=0.42 l=0.15
X99 x1.x9.output_stack x1.x10.Y.t6 x1.x5[7].floating.t3 VDD.t2 sky130_fd_pr__pfet_01v8 ad=0.101 pd=0.9 as=0.122 ps=1.42 w=0.42 l=0.15
X100 a_40_n1036# out.t3 VDD.t35 VSS.t30 sky130_fd_pr__nfet_01v8 ad=0.0651 pd=0.73 as=0.0693 ps=0.75 w=0.42 l=0.15
X101 x1.x9.output_stack x1.x10.Y.t7 x1.x5[7].floating.t2 VDD.t2 sky130_fd_pr__pfet_01v8 ad=0.101 pd=0.9 as=0.122 ps=1.42 w=0.42 l=0.15
X102 a_6130_n23# x3.IN a_6058_115# VSS.t32 sky130_fd_pr__nfet_01v8 ad=0.122 pd=1.42 as=0.0441 ps=0.63 w=0.42 l=0.15
X103 x3.x3[1].floating sample_code3[1].t0 x3.x9.output_stack VSS.t69 sky130_fd_pr__nfet_01v8 ad=0.122 pd=1.42 as=0.0966 ps=0.88 w=0.42 l=0.15
X104 x4.x5[7].floating.t4 x4.x10.Y.t5 x4.x9.output_stack VDD.t3 sky130_fd_pr__pfet_01v8 ad=0.122 pd=1.42 as=0.101 ps=0.9 w=0.42 l=0.15
X105 a_727_1812# in.t11 a_655_1812# VSS.t0 sky130_fd_pr__nfet_01v8 ad=0.122 pd=1.42 as=0.0441 ps=0.63 w=0.42 l=0.15
X106 a_12767_n161# x2.IN a_12679_n161# VSS.t18 sky130_fd_pr__nfet_01v8 ad=0.0441 pd=0.63 as=0.122 ps=1.42 w=0.42 l=0.15
X107 a_6465_2476# x4.x9.output_stack VDD.t23 VDD.t22 sky130_fd_pr__pfet_01v8_hvt ad=0.122 pd=1.42 as=0.122 ps=1.42 w=0.42 l=0.15
X108 VSS.t9 x1.IN a_6465_2476# VDD.t12 sky130_fd_pr__pfet_01v8_hvt ad=0.0693 pd=0.75 as=0.0651 ps=0.73 w=0.42 l=0.15
X109 x2.x6.floating x2.x6.SW x2.x9.output_stack VDD.t45 sky130_fd_pr__pfet_01v8 ad=0.122 pd=1.42 as=0.122 ps=1.42 w=0.42 l=0.15
X110 x3.IN x2.x9.output_stack a_6749_n1239# VDD.t43 sky130_fd_pr__pfet_01v8_hvt ad=0.122 pd=1.42 as=0.0651 ps=0.73 w=0.42 l=0.15
X111 a_12839_n23# x2.IN a_12767_115# VSS.t19 sky130_fd_pr__nfet_01v8 ad=0.122 pd=1.42 as=0.0441 ps=0.63 w=0.42 l=0.15
X112 x2.x9.output_stack sample_code2[2].t2 x2.x4[3].floating VSS.t3 sky130_fd_pr__nfet_01v8 ad=0.0966 pd=0.88 as=0.122 ps=1.42 w=0.42 l=0.15
X113 x2.x9.output_stack sample_code2[0].t0 x2.x2.floating VSS.t29 sky130_fd_pr__nfet_01v8 ad=0.124 pd=1.43 as=0.122 ps=1.42 w=0.42 l=0.15
X114 a_7389_3063# x1.IN a_7301_3201# VDD.t11 sky130_fd_pr__pfet_01v8_hvt ad=0.122 pd=1.42 as=0.122 ps=1.42 w=0.42 l=0.15
X115 x4.x4[3].floating sample_code0[2].t1 x4.x9.output_stack VSS.t64 sky130_fd_pr__nfet_01v8 ad=0.122 pd=1.42 as=0.0966 ps=0.88 w=0.42 l=0.15
X116 x2.x5[7].floating.t5 x2.x10.Y.t4 x2.x9.output_stack VDD.t71 sky130_fd_pr__pfet_01v8 ad=0.122 pd=1.42 as=0.101 ps=0.9 w=0.42 l=0.15
X117 x3.x9.output_stack x3.x10.Y.t7 x3.x5[7].floating.t2 VDD.t6 sky130_fd_pr__pfet_01v8 ad=0.101 pd=0.9 as=0.122 ps=1.42 w=0.42 l=0.15
X118 a_6130_n851# x3.IN a_6058_n851# VSS.t32 sky130_fd_pr__nfet_01v8 ad=0.122 pd=1.42 as=0.0441 ps=0.63 w=0.42 l=0.15
X119 x1.x10.Y.t1 sample_code1[3].t1 VSS.t76 VSS.t75 sky130_fd_pr__nfet_01v8 ad=0.169 pd=1.82 as=0.169 ps=1.82 w=0.65 l=0.15
X120 a_12767_n437# x2.IN a_12679_n437# VSS.t18 sky130_fd_pr__nfet_01v8 ad=0.0441 pd=0.63 as=0.122 ps=1.42 w=0.42 l=0.15
X121 a_680_3063# in.t12 a_592_2925# VDD.t59 sky130_fd_pr__pfet_01v8_hvt ad=0.122 pd=1.42 as=0.122 ps=1.42 w=0.42 l=0.15
X122 a_13174_2135# x1.x9.output_stack x2.IN VSS.t70 sky130_fd_pr__nfet_01v8 ad=0.0651 pd=0.73 as=0.122 ps=1.42 w=0.42 l=0.15
X123 x3.x6.SW sample_delay_offset.t7 VDD.t54 VDD.t53 sky130_fd_pr__pfet_01v8_hvt ad=0.26 pd=2.52 as=0.26 ps=2.52 w=1 l=0.15
X124 a_655_1674# in.t13 a_567_1674# VSS.t50 sky130_fd_pr__nfet_01v8 ad=0.0441 pd=0.63 as=0.122 ps=1.42 w=0.42 l=0.15
X125 x2.x5[7].floating.t4 x2.x10.Y.t5 x2.x9.output_stack VDD.t5 sky130_fd_pr__pfet_01v8 ad=0.122 pd=1.42 as=0.101 ps=0.9 w=0.42 l=0.15
X126 a_7436_1260# x1.IN a_7364_1260# VSS.t7 sky130_fd_pr__nfet_01v8 ad=0.122 pd=1.42 as=0.0441 ps=0.63 w=0.42 l=0.15
X127 x2.x5[7].floating.t3 x2.x10.Y.t6 x2.x9.output_stack VDD.t70 sky130_fd_pr__pfet_01v8 ad=0.122 pd=1.42 as=0.101 ps=0.9 w=0.42 l=0.15
X128 x3.x9.output_stack x3.x10.Y.t8 x3.x5[7].floating.t1 VDD.t49 sky130_fd_pr__pfet_01v8 ad=0.101 pd=0.9 as=0.122 ps=1.42 w=0.42 l=0.15
X129 x1.x9.output_stack x1.x6.SW x1.x6.floating VDD.t25 sky130_fd_pr__pfet_01v8 ad=0.122 pd=1.42 as=0.122 ps=1.42 w=0.42 l=0.15
X130 a_7364_1950# x1.IN a_7276_1950# VSS.t6 sky130_fd_pr__nfet_01v8 ad=0.0441 pd=0.63 as=0.122 ps=1.42 w=0.42 l=0.15
X131 a_12814_n2378# x2.IN VDD.t30 VDD.t28 sky130_fd_pr__pfet_01v8_hvt ad=0.122 pd=1.42 as=0.122 ps=1.42 w=0.42 l=0.15
X132 a_680_3339# in.t14 a_592_3201# VDD.t24 sky130_fd_pr__pfet_01v8_hvt ad=0.122 pd=1.42 as=0.122 ps=1.42 w=0.42 l=0.15
X133 x1.x2.floating sample_code1[0].t0 x1.x9.output_stack VSS.t47 sky130_fd_pr__nfet_01v8 ad=0.122 pd=1.42 as=0.124 ps=1.43 w=0.42 l=0.15
X134 a_7436_1536# x1.IN a_7364_1536# VSS.t7 sky130_fd_pr__nfet_01v8 ad=0.122 pd=1.42 as=0.0441 ps=0.63 w=0.42 l=0.15
X135 x2.x6.SW sample_delay_offset.t8 VSS.t55 VSS.t54 sky130_fd_pr__nfet_01v8 ad=0.169 pd=1.82 as=0.169 ps=1.82 w=0.65 l=0.15
X136 x2.x5[7].floating.t2 x2.x10.Y.t7 x2.x9.output_stack VDD.t0 sky130_fd_pr__pfet_01v8 ad=0.122 pd=1.42 as=0.101 ps=0.9 w=0.42 l=0.15
X137 a_12767_n23# x2.IN a_12679_n161# VSS.t18 sky130_fd_pr__nfet_01v8 ad=0.0441 pd=0.63 as=0.122 ps=1.42 w=0.42 l=0.15
X138 x3.x9.output_stack x3.x10.Y.t9 x3.x5[7].floating.t0 VDD.t46 sky130_fd_pr__pfet_01v8 ad=0.101 pd=0.9 as=0.122 ps=1.42 w=0.42 l=0.15
X139 x1.x3[1].floating sample_code1[1].t1 x1.x9.output_stack VSS.t80 sky130_fd_pr__nfet_01v8 ad=0.122 pd=1.42 as=0.0966 ps=0.88 w=0.42 l=0.15
X140 a_6058_n23# x3.IN a_5970_n161# VSS.t33 sky130_fd_pr__nfet_01v8 ad=0.0441 pd=0.63 as=0.122 ps=1.42 w=0.42 l=0.15
X141 VDD.t64 sample_code3[3].t1 x3.x10.Y.t1 VDD.t63 sky130_fd_pr__pfet_01v8_hvt ad=0.26 pd=2.52 as=0.26 ps=2.52 w=1 l=0.15
X142 a_727_1260# in.t15 a_655_1398# VSS.t0 sky130_fd_pr__nfet_01v8 ad=0.122 pd=1.42 as=0.0441 ps=0.63 w=0.42 l=0.15
X143 a_7364_1122# x1.IN a_7276_1122# VSS.t6 sky130_fd_pr__nfet_01v8 ad=0.0441 pd=0.63 as=0.122 ps=1.42 w=0.42 l=0.15
X144 a_12767_n851# x2.IN x2.x9.output_stack VSS.t18 sky130_fd_pr__nfet_01v8 ad=0.0441 pd=0.63 as=0.122 ps=1.42 w=0.42 l=0.15
X145 a_12839_n299# x2.IN a_12767_n161# VSS.t19 sky130_fd_pr__nfet_01v8 ad=0.122 pd=1.42 as=0.0441 ps=0.63 w=0.42 l=0.15
X146 VSS.t5 x3.x9.output_stack a_40_n1036# VSS.t4 sky130_fd_pr__nfet_01v8 ad=0.122 pd=1.42 as=0.122 ps=1.42 w=0.42 l=0.15
X147 x4.x5[7].floating.t3 x4.x10.Y.t6 x4.x9.output_stack VDD.t3 sky130_fd_pr__pfet_01v8 ad=0.122 pd=1.42 as=0.101 ps=0.9 w=0.42 l=0.15
X148 VSS.t43 sample_code2[3].t1 x2.x10.Y.t0 VSS.t42 sky130_fd_pr__nfet_01v8 ad=0.169 pd=1.82 as=0.169 ps=1.82 w=0.65 l=0.15
X149 x2.x9.output_stack sample_code2[2].t3 x2.x4[3].floating VSS.t28 sky130_fd_pr__nfet_01v8 ad=0.0966 pd=0.88 as=0.122 ps=1.42 w=0.42 l=0.15
X150 VDD.t37 x3.IN a_6749_n1036# VSS.t35 sky130_fd_pr__nfet_01v8 ad=0.0693 pd=0.75 as=0.13 ps=1.46 w=0.42 l=0.15
X151 x3.x9.output_stack sample_code3[1].t1 x3.x3[1].floating VSS.t45 sky130_fd_pr__nfet_01v8 ad=0.0966 pd=0.88 as=0.122 ps=1.42 w=0.42 l=0.15
X152 a_12839_n575# x2.IN a_12767_n437# VSS.t19 sky130_fd_pr__nfet_01v8 ad=0.122 pd=1.42 as=0.0441 ps=0.63 w=0.42 l=0.15
X153 VSS.t53 sample_delay_offset.t9 x1.x6.SW VSS.t52 sky130_fd_pr__nfet_01v8 ad=0.169 pd=1.82 as=0.169 ps=1.82 w=0.65 l=0.15
X154 x3.x7.floating sample_delay_offset.t10 x3.x9.output_stack VSS.t51 sky130_fd_pr__nfet_01v8 ad=0.122 pd=1.42 as=0.122 ps=1.42 w=0.42 l=0.15
X155 a_6465_2135# x4.x9.output_stack x1.IN VSS.t15 sky130_fd_pr__nfet_01v8 ad=0.0651 pd=0.73 as=0.122 ps=1.42 w=0.42 l=0.15
X156 a_12767_115# x2.IN VSS.t20 VSS.t18 sky130_fd_pr__nfet_01v8 ad=0.0441 pd=0.63 as=0.122 ps=1.42 w=0.42 l=0.15
X157 x1.x4[3].floating sample_code1[2].t2 x1.x9.output_stack VSS.t79 sky130_fd_pr__nfet_01v8 ad=0.122 pd=1.42 as=0.0966 ps=0.88 w=0.42 l=0.15
X158 VDD.t52 sample_delay_offset.t11 x4.x6.SW VDD.t51 sky130_fd_pr__pfet_01v8_hvt ad=0.26 pd=2.52 as=0.26 ps=2.52 w=1 l=0.15
X159 a_6058_115# x3.IN VSS.t34 VSS.t33 sky130_fd_pr__nfet_01v8 ad=0.0441 pd=0.63 as=0.122 ps=1.42 w=0.42 l=0.15
X160 a_12814_n2102# x2.IN a_12726_n1964# VDD.t28 sky130_fd_pr__pfet_01v8_hvt ad=0.122 pd=1.42 as=0.122 ps=1.42 w=0.42 l=0.15
X161 x4.x9.output_stack in.t16 a_592_2925# VDD.t74 sky130_fd_pr__pfet_01v8_hvt ad=0.122 pd=1.42 as=0.122 ps=1.42 w=0.42 l=0.15
X162 a_7436_1812# x1.IN a_7364_1950# VSS.t7 sky130_fd_pr__nfet_01v8 ad=0.122 pd=1.42 as=0.0441 ps=0.63 w=0.42 l=0.15
X163 x1.x9.output_stack sample_code1[2].t3 x1.x4[3].floating VSS.t13 sky130_fd_pr__nfet_01v8 ad=0.0966 pd=0.88 as=0.122 ps=1.42 w=0.42 l=0.15
X164 VSS.t74 out.t4 a_40_n1239# VDD.t73 sky130_fd_pr__pfet_01v8_hvt ad=0.0693 pd=0.75 as=0.13 ps=1.46 w=0.42 l=0.15
X165 x4.x2.floating sample_code0[0].t0 x4.x9.output_stack VSS.t67 sky130_fd_pr__nfet_01v8 ad=0.122 pd=1.42 as=0.124 ps=1.43 w=0.42 l=0.15
X166 VSS.t40 x2.x9.output_stack a_6749_n1036# VSS.t39 sky130_fd_pr__nfet_01v8 ad=0.122 pd=1.42 as=0.122 ps=1.42 w=0.42 l=0.15
X167 x1.x5[7].floating.t1 x1.x10.Y.t8 x1.x9.output_stack VDD.t2 sky130_fd_pr__pfet_01v8 ad=0.122 pd=1.42 as=0.101 ps=0.9 w=0.42 l=0.15
X168 a_40_n1239# out.t5 VSS.t48 VDD.t48 sky130_fd_pr__pfet_01v8_hvt ad=0.0651 pd=0.73 as=0.0693 ps=0.75 w=0.42 l=0.15
X169 a_6130_n851# x3.IN a_6058_n713# VSS.t32 sky130_fd_pr__nfet_01v8 ad=0.122 pd=1.42 as=0.0441 ps=0.63 w=0.42 l=0.15
X170 a_655_1260# in.t17 a_567_1122# VSS.t50 sky130_fd_pr__nfet_01v8 ad=0.0441 pd=0.63 as=0.122 ps=1.42 w=0.42 l=0.15
X171 x4.x9.output_stack x4.x10.Y.t7 x4.x5[7].floating.t2 VDD.t3 sky130_fd_pr__pfet_01v8 ad=0.101 pd=0.9 as=0.122 ps=1.42 w=0.42 l=0.15
X172 a_13174_2135# x1.x9.output_stack VSS.t71 VSS.t70 sky130_fd_pr__nfet_01v8 ad=0.122 pd=1.42 as=0.122 ps=1.42 w=0.42 l=0.15
X173 x4.x9.output_stack x4.x6.SW x4.x6.floating VDD.t9 sky130_fd_pr__pfet_01v8 ad=0.122 pd=1.42 as=0.122 ps=1.42 w=0.42 l=0.15
X174 a_655_1536# in.t18 a_567_1398# VSS.t50 sky130_fd_pr__nfet_01v8 ad=0.0441 pd=0.63 as=0.122 ps=1.42 w=0.42 l=0.15
X175 out.t0 x3.x9.output_stack a_40_n1036# VSS.t4 sky130_fd_pr__nfet_01v8 ad=0.122 pd=1.42 as=0.0651 ps=0.73 w=0.42 l=0.15
X176 a_7364_1812# x1.IN a_7276_1674# VSS.t6 sky130_fd_pr__nfet_01v8 ad=0.0441 pd=0.63 as=0.122 ps=1.42 w=0.42 l=0.15
X177 VSS.t8 x1.IN a_7364_1122# VSS.t7 sky130_fd_pr__nfet_01v8 ad=0.122 pd=1.42 as=0.0441 ps=0.63 w=0.42 l=0.15
X178 a_12814_n2378# x2.IN a_12726_n2240# VDD.t28 sky130_fd_pr__pfet_01v8_hvt ad=0.122 pd=1.42 as=0.122 ps=1.42 w=0.42 l=0.15
X179 a_12839_n851# x2.IN a_12767_n851# VSS.t19 sky130_fd_pr__nfet_01v8 ad=0.122 pd=1.42 as=0.0441 ps=0.63 w=0.42 l=0.15
X180 a_6058_n575# x3.IN a_5970_n713# VSS.t33 sky130_fd_pr__nfet_01v8 ad=0.0441 pd=0.63 as=0.122 ps=1.42 w=0.42 l=0.15
X181 a_7389_3339# x1.IN a_7301_3477# VDD.t10 sky130_fd_pr__pfet_01v8_hvt ad=0.122 pd=1.42 as=0.122 ps=1.42 w=0.42 l=0.15
X182 a_13174_2476# x1.x9.output_stack x2.IN VDD.t31 sky130_fd_pr__pfet_01v8_hvt ad=0.0651 pd=0.73 as=0.122 ps=1.42 w=0.42 l=0.15
X183 a_6105_n2102# x3.IN a_6017_n2240# VDD.t36 sky130_fd_pr__pfet_01v8_hvt ad=0.122 pd=1.42 as=0.122 ps=1.42 w=0.42 l=0.15
X184 x4.x9.output_stack in.t19 a_655_2088# VSS.t0 sky130_fd_pr__nfet_01v8 ad=0.122 pd=1.42 as=0.0441 ps=0.63 w=0.42 l=0.15
X185 VDD.t8 x3.x9.output_stack a_40_n1239# VDD.t7 sky130_fd_pr__pfet_01v8_hvt ad=0.122 pd=1.42 as=0.122 ps=1.42 w=0.42 l=0.15
X186 x2.x9.output_stack sample_code2[1].t1 x2.x3[1].floating VSS.t2 sky130_fd_pr__nfet_01v8 ad=0.0966 pd=0.88 as=0.122 ps=1.42 w=0.42 l=0.15
X187 x1.x9.output_stack x1.x10.Y.t9 x1.x5[7].floating.t0 VDD.t2 sky130_fd_pr__pfet_01v8 ad=0.101 pd=0.9 as=0.122 ps=1.42 w=0.42 l=0.15
X188 a_12767_n713# x2.IN a_12679_n713# VSS.t18 sky130_fd_pr__nfet_01v8 ad=0.0441 pd=0.63 as=0.122 ps=1.42 w=0.42 l=0.15
X189 x4.x9.output_stack sample_code0[2].t2 x4.x4[3].floating VSS.t41 sky130_fd_pr__nfet_01v8 ad=0.0966 pd=0.88 as=0.122 ps=1.42 w=0.42 l=0.15
X190 a_6130_n299# x3.IN a_6058_n299# VSS.t32 sky130_fd_pr__nfet_01v8 ad=0.122 pd=1.42 as=0.0441 ps=0.63 w=0.42 l=0.15
X191 x4.x9.output_stack x4.x10.Y.t8 x4.x5[7].floating.t1 VDD.t3 sky130_fd_pr__pfet_01v8 ad=0.101 pd=0.9 as=0.122 ps=1.42 w=0.42 l=0.15
X192 x4.x5[7].floating.t0 x4.x10.Y.t9 x4.x9.output_stack VDD.t3 sky130_fd_pr__pfet_01v8 ad=0.122 pd=1.42 as=0.101 ps=0.9 w=0.42 l=0.15
X193 a_13174_2135# x2.IN VDD.t29 VSS.t17 sky130_fd_pr__nfet_01v8 ad=0.13 pd=1.46 as=0.0693 ps=0.75 w=0.42 l=0.15
X194 x4.x10.Y.t0 sample_code0[3].t1 VDD.t21 VDD.t20 sky130_fd_pr__pfet_01v8_hvt ad=0.26 pd=2.52 as=0.26 ps=2.52 w=1 l=0.15
X195 a_655_1950# in.t20 a_567_1950# VSS.t50 sky130_fd_pr__nfet_01v8 ad=0.0441 pd=0.63 as=0.122 ps=1.42 w=0.42 l=0.15
X196 x2.x9.output_stack x2.x10.Y.t8 x2.x5[7].floating.t1 VDD.t72 sky130_fd_pr__pfet_01v8 ad=0.101 pd=0.9 as=0.122 ps=1.42 w=0.42 l=0.15
X197 a_6105_n1826# x3.IN x3.x9.output_stack VDD.t36 sky130_fd_pr__pfet_01v8_hvt ad=0.122 pd=1.42 as=0.122 ps=1.42 w=0.42 l=0.15
X198 x2.x9.output_stack x2.x10.Y.t9 x2.x5[7].floating.t0 VDD.t4 sky130_fd_pr__pfet_01v8 ad=0.101 pd=0.9 as=0.122 ps=1.42 w=0.42 l=0.15
X199 x4.x4[3].floating sample_code0[2].t3 x4.x9.output_stack VSS.t82 sky130_fd_pr__nfet_01v8 ad=0.122 pd=1.42 as=0.0966 ps=0.88 w=0.42 l=0.15
X200 VDD.t27 in.t21 a_592_3477# VDD.t26 sky130_fd_pr__pfet_01v8_hvt ad=0.122 pd=1.42 as=0.122 ps=1.42 w=0.42 l=0.15
X201 a_6465_2135# x4.x9.output_stack VSS.t16 VSS.t15 sky130_fd_pr__nfet_01v8 ad=0.122 pd=1.42 as=0.122 ps=1.42 w=0.42 l=0.15
X202 a_7364_1398# x1.IN a_7276_1398# VSS.t6 sky130_fd_pr__nfet_01v8 ad=0.0441 pd=0.63 as=0.122 ps=1.42 w=0.42 l=0.15
X203 a_12814_n1826# x2.IN a_12726_n1964# VDD.t28 sky130_fd_pr__pfet_01v8_hvt ad=0.122 pd=1.42 as=0.122 ps=1.42 w=0.42 l=0.15
R0 sample_delay_offset.n30 sample_delay_offset.t11 230.016
R1 sample_delay_offset.n2 sample_delay_offset.t5 230.016
R2 sample_delay_offset.n18 sample_delay_offset.t7 229.971
R3 sample_delay_offset.n7 sample_delay_offset.t0 229.971
R4 sample_delay_offset.n18 sample_delay_offset.t4 158.351
R5 sample_delay_offset.n7 sample_delay_offset.t8 158.351
R6 sample_delay_offset.n29 sample_delay_offset.t1 153.665
R7 sample_delay_offset.n1 sample_delay_offset.t9 153.665
R8 sample_delay_offset.n30 sample_delay_offset 153.601
R9 sample_delay_offset.n2 sample_delay_offset 153.601
R10 sample_delay_offset sample_delay_offset.t2 140.379
R11 sample_delay_offset sample_delay_offset.t3 140.379
R12 sample_delay_offset.n26 sample_delay_offset.t10 140.34
R13 sample_delay_offset.n15 sample_delay_offset.t6 140.34
R14 sample_delay_offset.n31 sample_delay_offset.n30 9.3005
R15 sample_delay_offset.n3 sample_delay_offset.n2 9.3005
R16 sample_delay_offset.n38 sample_delay_offset.n16 9.14466
R17 sample_delay_offset.n19 sample_delay_offset.n18 7.39809
R18 sample_delay_offset.n8 sample_delay_offset.n7 7.39809
R19 sample_delay_offset.n36 sample_delay_offset.n35 5.90325
R20 sample_delay_offset.n37 sample_delay_offset.n36 5.46925
R21 sample_delay_offset.n30 sample_delay_offset.n29 4.91671
R22 sample_delay_offset.n2 sample_delay_offset.n1 4.91671
R23 sample_delay_offset.n5 sample_delay_offset.n3 4.90192
R24 sample_delay_offset.n33 sample_delay_offset.n31 4.9013
R25 sample_delay_offset.n27 sample_delay_offset.n26 4.18104
R26 sample_delay_offset.n16 sample_delay_offset.n15 4.18104
R27 sample_delay_offset.n35 sample_delay_offset 4.14309
R28 sample_delay_offset.n39 sample_delay_offset 4.14309
R29 sample_delay_offset.n21 sample_delay_offset.n20 4.0005
R30 sample_delay_offset.n10 sample_delay_offset.n9 4.0005
R31 sample_delay_offset.n39 sample_delay_offset.n38 3.76287
R32 sample_delay_offset.n37 sample_delay_offset.n27 3.75602
R33 sample_delay_offset.n22 sample_delay_offset.n21 3.03311
R34 sample_delay_offset.n11 sample_delay_offset.n10 3.03311
R35 sample_delay_offset sample_delay_offset.n28 2.4005
R36 sample_delay_offset sample_delay_offset.n0 2.4005
R37 sample_delay_offset.n38 sample_delay_offset.n37 2.01947
R38 sample_delay_offset.n25 sample_delay_offset.n24 1.87694
R39 sample_delay_offset.n14 sample_delay_offset.n13 1.87694
R40 sample_delay_offset.n20 sample_delay_offset 1.6005
R41 sample_delay_offset.n9 sample_delay_offset 1.6005
R42 sample_delay_offset.n25 sample_delay_offset 1.43349
R43 sample_delay_offset.n14 sample_delay_offset 1.43349
R44 sample_delay_offset.n24 sample_delay_offset.n23 1.12626
R45 sample_delay_offset.n13 sample_delay_offset.n12 1.12626
R46 sample_delay_offset.n34 sample_delay_offset 1.01229
R47 sample_delay_offset sample_delay_offset.n40 1.01229
R48 sample_delay_offset.n34 sample_delay_offset.n33 0.726043
R49 sample_delay_offset.n27 sample_delay_offset.n25 0.726043
R50 sample_delay_offset.n16 sample_delay_offset.n14 0.726043
R51 sample_delay_offset.n40 sample_delay_offset.n5 0.726043
R52 sample_delay_offset.n36 sample_delay_offset 0.718134
R53 sample_delay_offset.n31 sample_delay_offset.n28 0.533833
R54 sample_delay_offset.n21 sample_delay_offset.n19 0.533833
R55 sample_delay_offset.n10 sample_delay_offset.n8 0.533833
R56 sample_delay_offset.n3 sample_delay_offset.n0 0.533833
R57 sample_delay_offset.n33 sample_delay_offset.n32 0.421696
R58 sample_delay_offset.n5 sample_delay_offset.n4 0.421696
R59 sample_delay_offset.n35 sample_delay_offset.n34 0.0783302
R60 sample_delay_offset.n40 sample_delay_offset.n39 0.0783302
R61 sample_delay_offset.n27 sample_delay_offset 0.0447308
R62 sample_delay_offset.n16 sample_delay_offset 0.0447308
R63 sample_delay_offset.n26 sample_delay_offset 0.0384464
R64 sample_delay_offset.n15 sample_delay_offset 0.0384464
R65 sample_delay_offset.n32 sample_delay_offset 0.0195217
R66 sample_delay_offset.n27 sample_delay_offset 0.0195217
R67 sample_delay_offset.n16 sample_delay_offset 0.0195217
R68 sample_delay_offset.n4 sample_delay_offset 0.0195217