* NGSPICE file created from hgu_delay_no_code_flat.ext - technology: sky130A

.subckt hgu_delay_no_code_flat IN OUT code[3] code[1] code[2] code[0] code_offset
+ VSS VDD
X0 Uc x10.Y.t2 x5[7].floating.t7 VDD.t16 sky130_fd_pr__pfet_01v8 ad=0.101 pd=0.9 as=0.122 ps=1.42 w=0.42 l=0.15
X1 Uc code[2].t0 x4[3].floating VSS.t8 sky130_fd_pr__nfet_01v8 ad=0.0966 pd=0.88 as=0.122 ps=1.42 w=0.42 l=0.15
X2 x5[7].floating.t6 x10.Y.t3 Uc VDD.t16 sky130_fd_pr__pfet_01v8 ad=0.122 pd=1.42 as=0.101 ps=0.9 w=0.42 l=0.15
X3 Uc code_offset.t0 x7.floating VSS.t8 sky130_fd_pr__nfet_01v8 ad=0.122 pd=1.42 as=0.122 ps=1.42 w=0.42 l=0.15
X4 a_15703_1340# OUT.t2 VDD.t9 VSS.t0 sky130_fd_pr__nfet_01v8 ad=0.13 pd=1.46 as=0.0693 ps=0.75 w=0.42 l=0.15
X5 x3[1].floating code[1].t0 Uc VSS.t8 sky130_fd_pr__nfet_01v8 ad=0.122 pd=1.42 as=0.0966 ps=0.88 w=0.42 l=0.15
X6 a_9893_879# IN.t0 nstack_lab5 VSS.t3 sky130_fd_pr__nfet_01v8 ad=0.0441 pd=0.63 as=0.122 ps=1.42 w=0.42 l=0.15
X7 nstack_lab2 IN.t1 a_9893_465# VSS.t4 sky130_fd_pr__nfet_01v8 ad=0.122 pd=1.42 as=0.0441 ps=0.63 w=0.42 l=0.15
X8 pstack_lab4 IN.t2 pstack_lab5 VDD.t14 sky130_fd_pr__pfet_01v8_hvt ad=0.122 pd=1.42 as=0.122 ps=1.42 w=0.42 l=0.15
X9 nstack_lab6 IN.t3 a_9893_1017# VSS.t4 sky130_fd_pr__nfet_01v8 ad=0.122 pd=1.42 as=0.0441 ps=0.63 w=0.42 l=0.15
X10 pstack_lab2 IN.t4 pstack_lab1 VDD.t13 sky130_fd_pr__pfet_01v8_hvt ad=0.122 pd=1.42 as=0.122 ps=1.42 w=0.42 l=0.15
X11 a_15703_1340# Uc VSS.t2 VSS.t1 sky130_fd_pr__nfet_01v8 ad=0.122 pd=1.42 as=0.122 ps=1.42 w=0.42 l=0.15
X12 a_15703_1681# Uc OUT.t0 VDD.t2 sky130_fd_pr__pfet_01v8_hvt ad=0.0651 pd=0.73 as=0.122 ps=1.42 w=0.42 l=0.15
X13 x4[3].floating code[2].t1 Uc VSS.t8 sky130_fd_pr__nfet_01v8 ad=0.122 pd=1.42 as=0.0966 ps=0.88 w=0.42 l=0.15
X14 VDD.t15 OUT.t3 a_15703_1340# VSS.t0 sky130_fd_pr__nfet_01v8 ad=0.0693 pd=0.75 as=0.0651 ps=0.73 w=0.42 l=0.15
X15 a_9893_465# IN.t5 nstack_lab1 VSS.t3 sky130_fd_pr__nfet_01v8 ad=0.0441 pd=0.63 as=0.122 ps=1.42 w=0.42 l=0.15
X16 VDD.t12 code_offset.t1 x6.SW VDD.t11 sky130_fd_pr__pfet_01v8_hvt ad=0.26 pd=2.52 as=0.26 ps=2.52 w=1 l=0.15
X17 VSS.t5 IN.t6 a_9893_327# VSS.t4 sky130_fd_pr__nfet_01v8 ad=0.122 pd=1.42 as=0.0441 ps=0.63 w=0.42 l=0.15
X18 Uc x10.Y.t4 x5[7].floating.t5 VDD.t16 sky130_fd_pr__pfet_01v8 ad=0.101 pd=0.9 as=0.122 ps=1.42 w=0.42 l=0.15
X19 x5[7].floating.t4 x10.Y.t5 Uc VDD.t16 sky130_fd_pr__pfet_01v8 ad=0.122 pd=1.42 as=0.101 ps=0.9 w=0.42 l=0.15
X20 pstack_lab2 IN.t7 pstack_lab3 VDD.t7 sky130_fd_pr__pfet_01v8_hvt ad=0.122 pd=1.42 as=0.122 ps=1.42 w=0.42 l=0.15
X21 Uc code[1].t1 x3[1].floating VSS.t8 sky130_fd_pr__nfet_01v8 ad=0.0966 pd=0.88 as=0.122 ps=1.42 w=0.42 l=0.15
X22 nstack_lab4 IN.t8 a_9893_741# VSS.t4 sky130_fd_pr__nfet_01v8 ad=0.122 pd=1.42 as=0.0441 ps=0.63 w=0.42 l=0.15
X23 a_9893_327# IN.t9 nstack_lab1 VSS.t3 sky130_fd_pr__nfet_01v8 ad=0.0441 pd=0.63 as=0.122 ps=1.42 w=0.42 l=0.15
X24 x10.Y.t0 code[3].t0 VDD.t6 VDD.t5 sky130_fd_pr__pfet_01v8_hvt ad=0.26 pd=2.52 as=0.26 ps=2.52 w=1 l=0.15
X25 a_15703_1681# Uc VDD.t1 VDD.t0 sky130_fd_pr__pfet_01v8_hvt ad=0.122 pd=1.42 as=0.122 ps=1.42 w=0.42 l=0.15
X26 Uc x6.SW x6.floating VDD.t8 sky130_fd_pr__pfet_01v8 ad=0.122 pd=1.42 as=0.122 ps=1.42 w=0.42 l=0.15
X27 VSS.t10 code_offset.t2 x6.SW VSS.t9 sky130_fd_pr__nfet_01v8 ad=0.169 pd=1.82 as=0.169 ps=1.82 w=0.65 l=0.15
X28 a_9893_1293# IN.t10 nstack_lab7 VSS.t3 sky130_fd_pr__nfet_01v8 ad=0.0441 pd=0.63 as=0.122 ps=1.42 w=0.42 l=0.15
X29 x5[7].floating.t3 x10.Y.t6 Uc VDD.t16 sky130_fd_pr__pfet_01v8 ad=0.122 pd=1.42 as=0.101 ps=0.9 w=0.42 l=0.15
X30 a_15703_1681# OUT.t4 VSS.t12 VDD.t2 sky130_fd_pr__pfet_01v8_hvt ad=0.13 pd=1.46 as=0.0693 ps=0.75 w=0.42 l=0.15
X31 a_9893_741# IN.t11 nstack_lab3 VSS.t3 sky130_fd_pr__nfet_01v8 ad=0.0441 pd=0.63 as=0.122 ps=1.42 w=0.42 l=0.15
X32 Uc IN.t12 pstack_lab5 VDD.t10 sky130_fd_pr__pfet_01v8_hvt ad=0.122 pd=1.42 as=0.122 ps=1.42 w=0.42 l=0.15
X33 x5[7].floating.t2 x10.Y.t7 Uc VDD.t16 sky130_fd_pr__pfet_01v8 ad=0.122 pd=1.42 as=0.101 ps=0.9 w=0.42 l=0.15
X34 Uc x10.Y.t8 x5[7].floating.t1 VDD.t16 sky130_fd_pr__pfet_01v8 ad=0.101 pd=0.9 as=0.122 ps=1.42 w=0.42 l=0.15
X35 Uc code[2].t2 x4[3].floating VSS.t8 sky130_fd_pr__nfet_01v8 ad=0.0966 pd=0.88 as=0.122 ps=1.42 w=0.42 l=0.15
X36 nstack_lab2 IN.t13 a_9893_603# VSS.t4 sky130_fd_pr__nfet_01v8 ad=0.122 pd=1.42 as=0.0441 ps=0.63 w=0.42 l=0.15
X37 pstack_lab4 IN.t14 pstack_lab3 VDD.t17 sky130_fd_pr__pfet_01v8_hvt ad=0.122 pd=1.42 as=0.122 ps=1.42 w=0.42 l=0.15
X38 x4[3].floating code[2].t3 Uc VSS.t8 sky130_fd_pr__nfet_01v8 ad=0.122 pd=1.42 as=0.0966 ps=0.88 w=0.42 l=0.15
X39 a_15703_1340# Uc OUT.t1 VSS.t0 sky130_fd_pr__nfet_01v8 ad=0.0651 pd=0.73 as=0.122 ps=1.42 w=0.42 l=0.15
X40 Uc IN.t15 a_9893_1293# VSS.t4 sky130_fd_pr__nfet_01v8 ad=0.122 pd=1.42 as=0.0441 ps=0.63 w=0.42 l=0.15
X41 x10.Y.t1 code[3].t1 VSS.t7 VSS.t6 sky130_fd_pr__nfet_01v8 ad=0.169 pd=1.82 as=0.169 ps=1.82 w=0.65 l=0.15
X42 a_9893_1155# IN.t16 nstack_lab7 VSS.t3 sky130_fd_pr__nfet_01v8 ad=0.0441 pd=0.63 as=0.122 ps=1.42 w=0.42 l=0.15
X43 VDD.t4 IN.t17 pstack_lab1 VDD.t3 sky130_fd_pr__pfet_01v8_hvt ad=0.122 pd=1.42 as=0.122 ps=1.42 w=0.42 l=0.15
X44 Uc x10.Y.t9 x5[7].floating.t0 VDD.t16 sky130_fd_pr__pfet_01v8 ad=0.101 pd=0.9 as=0.122 ps=1.42 w=0.42 l=0.15
X45 VSS.t11 OUT.t5 a_15703_1681# VDD.t2 sky130_fd_pr__pfet_01v8_hvt ad=0.0693 pd=0.75 as=0.0651 ps=0.73 w=0.42 l=0.15
X46 x2.floating code[0].t0 Uc VSS.t8 sky130_fd_pr__nfet_01v8 ad=0.122 pd=1.42 as=0.124 ps=1.43 w=0.42 l=0.15
X47 a_9893_603# IN.t18 nstack_lab3 VSS.t3 sky130_fd_pr__nfet_01v8 ad=0.0441 pd=0.63 as=0.122 ps=1.42 w=0.42 l=0.15
X48 nstack_lab6 IN.t19 a_9893_1155# VSS.t4 sky130_fd_pr__nfet_01v8 ad=0.122 pd=1.42 as=0.0441 ps=0.63 w=0.42 l=0.15
X49 nstack_lab4 IN.t20 a_9893_879# VSS.t4 sky130_fd_pr__nfet_01v8 ad=0.122 pd=1.42 as=0.0441 ps=0.63 w=0.42 l=0.15
X50 a_9893_1017# IN.t21 nstack_lab5 VSS.t3 sky130_fd_pr__nfet_01v8 ad=0.0441 pd=0.63 as=0.122 ps=1.42 w=0.42 l=0.15
R0 x10.Y x10.Y.t6 154.847
R1 x10.Y x10.Y.t8 154.8
R2 x10.Y x10.Y.t7 154.8
R3 x10.Y x10.Y.t2 154.8
R4 x10.Y x10.Y.t3 154.8
R5 x10.Y x10.Y.t4 154.8
R6 x10.Y x10.Y.t5 154.8
R7 x10.Y x10.Y.t9 154.8
R8 x10.Y.n0 x10.Y 134.239
R9 x10.Y x10.Y.t1 106.635
R10 x10.Y.n2 x10.Y.t0 24.6567
R11 x10.Y.n5 x10.Y.n4 12.4089
R12 x10.Y.n3 x10.Y.n2 9.12522
R13 x10.Y.n4 x10.Y.n3 7.34048
R14 x10.Y.n5 x10.Y 2.22659
R15 x10.Y.n2 x10.Y.n1 1.93377
R16 x10.Y x10.Y.n5 1.55202
R17 x10.Y.n3 x10.Y.n0 0.69928
R18 x5[7].floating.n95 x5[7].floating.t7 68.0345
R19 x5[7].floating.n24 x5[7].floating.t2 68.0345
R20 x5[7].floating.n42 x5[7].floating.t1 68.0345
R21 x5[7].floating.n54 x5[7].floating.t3 68.0345
R22 x5[7].floating.n154 x5[7].floating.t0 68.0345
R23 x5[7].floating.n142 x5[7].floating.t4 68.0345
R24 x5[7].floating.n12 x5[7].floating.t5 68.0345
R25 x5[7].floating.n109 x5[7].floating.t6 68.0345
R26 x5[7].floating.n73 x5[7].floating.n35 0.660401
R27 x5[7].floating.n91 x5[7].floating.n90 0.660401
R28 x5[7].floating.n130 x5[7].floating.n20 0.660401
R29 x5[7].floating.n139 x5[7].floating.n5 0.660401
R30 x5[7].floating.n121 x5[7].floating.n120 0.660401
R31 x5[7].floating.n60 x5[7].floating.n59 0.320345
R32 x5[7].floating.n160 x5[7].floating.n159 0.308269
R33 x5[7].floating.n161 x5[7].floating.n160 0.173084
R34 x5[7].floating.n61 x5[7].floating.n60 0.162103
R35 x5[7].floating.n160 x5[7].floating 0.100688
R36 x5[7].floating.n60 x5[7].floating 0.0755007
R37 x5[7].floating.n36 x5[7].floating.n35 0.0716912
R38 x5[7].floating.n35 x5[7].floating.n34 0.0716912
R39 x5[7].floating.n6 x5[7].floating.n5 0.0716912
R40 x5[7].floating.n5 x5[7].floating.n4 0.0716912
R41 x5[7].floating.n74 x5[7].floating.n73 0.0716912
R42 x5[7].floating.n122 x5[7].floating.n121 0.0716912
R43 x5[7].floating.n140 x5[7].floating.n139 0.0716912
R44 x5[7].floating.n120 x5[7].floating.n105 0.0716912
R45 x5[7].floating.n120 x5[7].floating.n119 0.0716912
R46 x5[7].floating.n40 x5[7].floating.n39 0.0557941
R47 x5[7].floating.n39 x5[7].floating.n38 0.0557941
R48 x5[7].floating.n38 x5[7].floating.n37 0.0557941
R49 x5[7].floating.n37 x5[7].floating.n36 0.0557941
R50 x5[7].floating.n34 x5[7].floating.n33 0.0557941
R51 x5[7].floating.n33 x5[7].floating.n32 0.0557941
R52 x5[7].floating.n32 x5[7].floating.n31 0.0557941
R53 x5[7].floating.n31 x5[7].floating.n30 0.0557941
R54 x5[7].floating.n10 x5[7].floating.n9 0.0557941
R55 x5[7].floating.n9 x5[7].floating.n8 0.0557941
R56 x5[7].floating.n8 x5[7].floating.n7 0.0557941
R57 x5[7].floating.n7 x5[7].floating.n6 0.0557941
R58 x5[7].floating.n4 x5[7].floating.n3 0.0557941
R59 x5[7].floating.n3 x5[7].floating.n2 0.0557941
R60 x5[7].floating.n2 x5[7].floating.n1 0.0557941
R61 x5[7].floating.n1 x5[7].floating.n0 0.0557941
R62 x5[7].floating.n69 x5[7].floating.n68 0.0557941
R63 x5[7].floating.n70 x5[7].floating.n69 0.0557941
R64 x5[7].floating.n71 x5[7].floating.n70 0.0557941
R65 x5[7].floating.n72 x5[7].floating.n71 0.0557941
R66 x5[7].floating.n76 x5[7].floating.n75 0.0557941
R67 x5[7].floating.n77 x5[7].floating.n76 0.0557941
R68 x5[7].floating.n78 x5[7].floating.n77 0.0557941
R69 x5[7].floating.n86 x5[7].floating.n85 0.0557941
R70 x5[7].floating.n85 x5[7].floating.n84 0.0557941
R71 x5[7].floating.n84 x5[7].floating.n83 0.0557941
R72 x5[7].floating.n83 x5[7].floating.n82 0.0557941
R73 x5[7].floating.n124 x5[7].floating.n123 0.0557941
R74 x5[7].floating.n125 x5[7].floating.n124 0.0557941
R75 x5[7].floating.n126 x5[7].floating.n125 0.0557941
R76 x5[7].floating.n135 x5[7].floating.n134 0.0557941
R77 x5[7].floating.n136 x5[7].floating.n135 0.0557941
R78 x5[7].floating.n137 x5[7].floating.n136 0.0557941
R79 x5[7].floating.n138 x5[7].floating.n137 0.0557941
R80 x5[7].floating.n171 x5[7].floating.n170 0.0557941
R81 x5[7].floating.n170 x5[7].floating.n169 0.0557941
R82 x5[7].floating.n169 x5[7].floating.n168 0.0557941
R83 x5[7].floating.n102 x5[7].floating.n101 0.0557941
R84 x5[7].floating.n103 x5[7].floating.n102 0.0557941
R85 x5[7].floating.n104 x5[7].floating.n103 0.0557941
R86 x5[7].floating.n105 x5[7].floating.n104 0.0557941
R87 x5[7].floating.n119 x5[7].floating.n118 0.0557941
R88 x5[7].floating.n118 x5[7].floating.n117 0.0557941
R89 x5[7].floating.n117 x5[7].floating.n116 0.0557941
R90 x5[7].floating.n116 x5[7].floating.n115 0.0557941
R91 x5[7].floating.n65 x5[7].floating.n64 0.0537206
R92 x5[7].floating.n90 x5[7].floating.n89 0.0537206
R93 x5[7].floating.n131 x5[7].floating.n130 0.0537206
R94 x5[7].floating.n164 x5[7].floating.n163 0.0537206
R95 x5[7].floating.n64 x5[7].floating.n63 0.0530294
R96 x5[7].floating.n90 x5[7].floating.n81 0.0530294
R97 x5[7].floating.n130 x5[7].floating.n129 0.0530294
R98 x5[7].floating.n165 x5[7].floating.n164 0.0530294
R99 x5[7].floating.n92 x5[7].floating.n91 0.0529559
R100 x5[7].floating.n50 x5[7].floating.n49 0.0529559
R101 x5[7].floating.n20 x5[7].floating.n19 0.0529559
R102 x5[7].floating.n151 x5[7].floating.n150 0.0529559
R103 x5[7].floating.n51 x5[7].floating.n50 0.0524559
R104 x5[7].floating.n91 x5[7].floating.n21 0.0524559
R105 x5[7].floating.n106 x5[7].floating.n20 0.0524559
R106 x5[7].floating.n150 x5[7].floating.n149 0.0524559
R107 x5[7].floating.n79 x5[7].floating.n78 0.0523382
R108 x5[7].floating.n127 x5[7].floating.n126 0.0523382
R109 x5[7].floating.n168 x5[7].floating.n167 0.0523382
R110 x5[7].floating.n68 x5[7].floating.n67 0.0516471
R111 x5[7].floating.n87 x5[7].floating.n86 0.0516471
R112 x5[7].floating.n134 x5[7].floating.n133 0.0516471
R113 x5[7].floating.n73 x5[7].floating 0.0495735
R114 x5[7].floating.n121 x5[7].floating 0.0495735
R115 x5[7].floating.n139 x5[7].floating 0.0495735
R116 x5[7].floating.n98 x5[7].floating.n97 0.0408846
R117 x5[7].floating.n45 x5[7].floating.n44 0.0408846
R118 x5[7].floating.n157 x5[7].floating.n156 0.0408846
R119 x5[7].floating.n15 x5[7].floating.n14 0.0408846
R120 x5[7].floating.n75 x5[7].floating 0.0336765
R121 x5[7].floating.n123 x5[7].floating 0.0336765
R122 x5[7].floating x5[7].floating.n171 0.0336765
R123 x5[7].floating.n30 x5[7].floating.n29 0.0271618
R124 x5[7].floating.n115 x5[7].floating.n114 0.0271618
R125 x5[7].floating.n101 x5[7].floating.n100 0.0266618
R126 x5[7].floating.n41 x5[7].floating.n40 0.0266618
R127 x5[7].floating.n11 x5[7].floating.n10 0.0266618
R128 x5[7].floating x5[7].floating.n72 0.0226176
R129 x5[7].floating x5[7].floating.n74 0.0226176
R130 x5[7].floating.n82 x5[7].floating 0.0226176
R131 x5[7].floating x5[7].floating.n122 0.0226176
R132 x5[7].floating x5[7].floating.n138 0.0226176
R133 x5[7].floating x5[7].floating.n140 0.0226176
R134 x5[7].floating.n63 x5[7].floating.n62 0.0191618
R135 x5[7].floating.n81 x5[7].floating.n80 0.0191618
R136 x5[7].floating.n129 x5[7].floating.n128 0.0191618
R137 x5[7].floating.n166 x5[7].floating.n165 0.0191618
R138 x5[7].floating.n66 x5[7].floating.n65 0.0184706
R139 x5[7].floating.n89 x5[7].floating.n88 0.0184706
R140 x5[7].floating.n132 x5[7].floating.n131 0.0184706
R141 x5[7].floating.n163 x5[7].floating.n162 0.0184706
R142 x5[7].floating.n100 x5[7].floating.n99 0.014
R143 x5[7].floating.n52 x5[7].floating.n51 0.014
R144 x5[7].floating.n46 x5[7].floating.n41 0.014
R145 x5[7].floating.n22 x5[7].floating.n21 0.014
R146 x5[7].floating.n16 x5[7].floating.n11 0.014
R147 x5[7].floating.n149 x5[7].floating.n148 0.014
R148 x5[7].floating.n159 x5[7].floating.n158 0.014
R149 x5[7].floating.n107 x5[7].floating.n106 0.014
R150 x5[7].floating.n93 x5[7].floating.n92 0.0135
R151 x5[7].floating.n59 x5[7].floating.n58 0.0135
R152 x5[7].floating.n49 x5[7].floating.n48 0.0135
R153 x5[7].floating.n29 x5[7].floating.n28 0.0135
R154 x5[7].floating.n19 x5[7].floating.n18 0.0135
R155 x5[7].floating.n146 x5[7].floating.n141 0.0135
R156 x5[7].floating.n152 x5[7].floating.n151 0.0135
R157 x5[7].floating.n114 x5[7].floating.n113 0.0135
R158 x5[7].floating.n27 x5[7].floating.n26 0.0120385
R159 x5[7].floating.n57 x5[7].floating.n56 0.0120385
R160 x5[7].floating.n145 x5[7].floating.n144 0.0120385
R161 x5[7].floating.n112 x5[7].floating.n111 0.0120385
R162 x5[7].floating.n67 x5[7].floating.n66 0.00464706
R163 x5[7].floating.n88 x5[7].floating.n87 0.00464706
R164 x5[7].floating.n133 x5[7].floating.n132 0.00464706
R165 x5[7].floating.n162 x5[7].floating.n161 0.00464706
R166 x5[7].floating.n62 x5[7].floating.n61 0.00395588
R167 x5[7].floating.n80 x5[7].floating.n79 0.00395588
R168 x5[7].floating.n128 x5[7].floating.n127 0.00395588
R169 x5[7].floating.n167 x5[7].floating.n166 0.00395588
R170 x5[7].floating.n110 x5[7].floating.n109 0.00359614
R171 x5[7].floating.n25 x5[7].floating.n24 0.00359614
R172 x5[7].floating.n55 x5[7].floating.n54 0.00359614
R173 x5[7].floating.n143 x5[7].floating.n142 0.00359614
R174 x5[7].floating.n94 x5[7].floating.n93 0.0035
R175 x5[7].floating.n58 x5[7].floating.n53 0.0035
R176 x5[7].floating.n48 x5[7].floating.n47 0.0035
R177 x5[7].floating.n28 x5[7].floating.n23 0.0035
R178 x5[7].floating.n18 x5[7].floating.n17 0.0035
R179 x5[7].floating.n147 x5[7].floating.n146 0.0035
R180 x5[7].floating.n153 x5[7].floating.n152 0.0035
R181 x5[7].floating.n113 x5[7].floating.n108 0.0035
R182 x5[7].floating.n99 x5[7].floating.n94 0.003
R183 x5[7].floating.n53 x5[7].floating.n52 0.003
R184 x5[7].floating.n47 x5[7].floating.n46 0.003
R185 x5[7].floating.n23 x5[7].floating.n22 0.003
R186 x5[7].floating.n17 x5[7].floating.n16 0.003
R187 x5[7].floating.n148 x5[7].floating.n147 0.003
R188 x5[7].floating.n158 x5[7].floating.n153 0.003
R189 x5[7].floating.n108 x5[7].floating.n107 0.003
R190 x5[7].floating.n155 x5[7].floating.n154 0.00277942
R191 x5[7].floating.n96 x5[7].floating.n95 0.0023396
R192 x5[7].floating.n43 x5[7].floating.n42 0.0023396
R193 x5[7].floating.n13 x5[7].floating.n12 0.0023396
R194 x5[7].floating.n157 x5[7].floating.n155 0.00233747
R195 x5[7].floating.n98 x5[7].floating.n96 0.00200689
R196 x5[7].floating.n45 x5[7].floating.n43 0.00200689
R197 x5[7].floating.n15 x5[7].floating.n13 0.00200689
R198 x5[7].floating.n27 x5[7].floating.n25 0.0010233
R199 x5[7].floating.n57 x5[7].floating.n55 0.0010233
R200 x5[7].floating.n145 x5[7].floating.n143 0.0010233
R201 x5[7].floating.n112 x5[7].floating.n110 0.0010233
R202 x5[7].floating.n99 x5[7].floating.n98 0.00053972
R203 x5[7].floating.n58 x5[7].floating.n57 0.00053972
R204 x5[7].floating.n46 x5[7].floating.n45 0.00053972
R205 x5[7].floating.n28 x5[7].floating.n27 0.00053972
R206 x5[7].floating.n16 x5[7].floating.n15 0.00053972
R207 x5[7].floating.n146 x5[7].floating.n145 0.00053972
R208 x5[7].floating.n158 x5[7].floating.n157 0.00053972
R209 x5[7].floating.n113 x5[7].floating.n112 0.00053972
R210 VDD.n1742 VDD.n4 426
R211 VDD.n1766 VDD.n2 351
R212 VDD.t11 VDD.n3 258.856
R213 VDD.n717 VDD.n129 198.118
R214 VDD.n540 VDD.n140 198.118
R215 VDD.n363 VDD.n151 198.118
R216 VDD.n1015 VDD.n1014 198.118
R217 VDD.n362 VDD.n152 198.118
R218 VDD.n539 VDD.n141 198.118
R219 VDD.n716 VDD.n130 198.118
R220 VDD.t5 VDD.n1764 188.965
R221 VDD.n902 VDD.n901 185
R222 VDD.n1071 VDD.n889 185
R223 VDD.n932 VDD.n930 185
R224 VDD.n1050 VDD.n928 185
R225 VDD.n1020 VDD.n1018 185
R226 VDD.n1070 VDD.n1069 185
R227 VDD.n1070 VDD.n118 185
R228 VDD.n941 VDD.n940 185
R229 VDD.n941 VDD.n118 185
R230 VDD.n1049 VDD.n1048 185
R231 VDD.n1049 VDD.n118 185
R232 VDD.n1029 VDD.n1028 185
R233 VDD.n1016 VDD.n967 185
R234 VDD.n894 VDD.n893 185
R235 VDD.n189 VDD.n82 185
R236 VDD.n161 VDD.n159 185
R237 VDD.n237 VDD.n236 185
R238 VDD.n1682 VDD.n246 185
R239 VDD.n264 VDD.n247 185
R240 VDD.n1657 VDD.n1656 185
R241 VDD.n1659 VDD.n1658 185
R242 VDD.n1629 VDD.n1628 185
R243 VDD.n1638 VDD.n1637 185
R244 VDD.n1623 VDD.n1622 185
R245 VDD.n1625 VDD.n1624 185
R246 VDD.n1595 VDD.n1594 185
R247 VDD.n1604 VDD.n1603 185
R248 VDD.n1589 VDD.n1588 185
R249 VDD.n1591 VDD.n1590 185
R250 VDD.n361 VDD.n360 185
R251 VDD.n380 VDD.n379 185
R252 VDD.n396 VDD.n395 185
R253 VDD.n412 VDD.n411 185
R254 VDD.n1519 VDD.n427 185
R255 VDD.n441 VDD.n428 185
R256 VDD.n1494 VDD.n1493 185
R257 VDD.n1496 VDD.n1495 185
R258 VDD.n1466 VDD.n1465 185
R259 VDD.n1475 VDD.n1474 185
R260 VDD.n1460 VDD.n1459 185
R261 VDD.n1462 VDD.n1461 185
R262 VDD.n1432 VDD.n1431 185
R263 VDD.n1441 VDD.n1440 185
R264 VDD.n1426 VDD.n1425 185
R265 VDD.n1428 VDD.n1427 185
R266 VDD.n538 VDD.n537 185
R267 VDD.n557 VDD.n556 185
R268 VDD.n573 VDD.n572 185
R269 VDD.n589 VDD.n588 185
R270 VDD.n1356 VDD.n604 185
R271 VDD.n618 VDD.n605 185
R272 VDD.n1331 VDD.n1330 185
R273 VDD.n1333 VDD.n1332 185
R274 VDD.n1303 VDD.n1302 185
R275 VDD.n1312 VDD.n1311 185
R276 VDD.n1297 VDD.n1296 185
R277 VDD.n1299 VDD.n1298 185
R278 VDD.n1269 VDD.n1268 185
R279 VDD.n1278 VDD.n1277 185
R280 VDD.n1263 VDD.n1262 185
R281 VDD.n1265 VDD.n1264 185
R282 VDD.n715 VDD.n714 185
R283 VDD.n734 VDD.n733 185
R284 VDD.n750 VDD.n749 185
R285 VDD.n766 VDD.n765 185
R286 VDD.n1193 VDD.n781 185
R287 VDD.n795 VDD.n782 185
R288 VDD.n1168 VDD.n1167 185
R289 VDD.n1170 VDD.n1169 185
R290 VDD.n1140 VDD.n1139 185
R291 VDD.n1149 VDD.n1148 185
R292 VDD.n1134 VDD.n1133 185
R293 VDD.n1136 VDD.n1135 185
R294 VDD.n1106 VDD.n1105 185
R295 VDD.n1115 VDD.n1114 185
R296 VDD.n1100 VDD.n1099 185
R297 VDD.n1102 VDD.n1101 185
R298 VDD.n768 VDD.n767 185
R299 VDD.n752 VDD.n751 185
R300 VDD.n736 VDD.n735 185
R301 VDD.n721 VDD.n720 185
R302 VDD.n797 VDD.n796 185
R303 VDD.n719 VDD.n718 185
R304 VDD.n591 VDD.n590 185
R305 VDD.n575 VDD.n574 185
R306 VDD.n559 VDD.n558 185
R307 VDD.n544 VDD.n543 185
R308 VDD.n620 VDD.n619 185
R309 VDD.n542 VDD.n541 185
R310 VDD.n414 VDD.n413 185
R311 VDD.n398 VDD.n397 185
R312 VDD.n382 VDD.n381 185
R313 VDD.n367 VDD.n366 185
R314 VDD.n443 VDD.n442 185
R315 VDD.n365 VDD.n364 185
R316 VDD.n245 VDD.n244 185
R317 VDD.n235 VDD.n160 185
R318 VDD.n208 VDD.n207 185
R319 VDD.n266 VDD.n265 185
R320 VDD.n179 VDD.n178 185
R321 VDD.n1760 VDD.n2 185
R322 VDD.n1764 VDD.n2 185
R323 VDD.n1765 VDD 160.49
R324 VDD.n1768 VDD.t6 152.88
R325 VDD.n28 VDD.t12 152.879
R326 VDD.n1734 VDD.n29 121.447
R327 VDD.n1734 VDD.n34 121.447
R328 VDD.n1738 VDD.n29 118.555
R329 VDD.n1011 VDD.n989 117.007
R330 VDD.n1765 VDD.t5 113.897
R331 VDD.n1150 VDD.n1149 111.177
R332 VDD.n1116 VDD.n1115 111.177
R333 VDD.n720 VDD.n128 111.177
R334 VDD.n735 VDD.n110 111.177
R335 VDD.n751 VDD.n126 111.177
R336 VDD.n767 VDD.n112 111.177
R337 VDD.n1313 VDD.n1312 111.177
R338 VDD.n1279 VDD.n1278 111.177
R339 VDD.n543 VDD.n139 111.177
R340 VDD.n558 VDD.n101 111.177
R341 VDD.n574 VDD.n137 111.177
R342 VDD.n590 VDD.n103 111.177
R343 VDD.n1476 VDD.n1475 111.177
R344 VDD.n1442 VDD.n1441 111.177
R345 VDD.n366 VDD.n150 111.177
R346 VDD.n381 VDD.n92 111.177
R347 VDD.n397 VDD.n148 111.177
R348 VDD.n413 VDD.n94 111.177
R349 VDD.n1639 VDD.n1638 111.177
R350 VDD.n1605 VDD.n1604 111.177
R351 VDD.n207 VDD.n206 111.177
R352 VDD.n1705 VDD.n160 111.177
R353 VDD.n244 VDD.n85 111.177
R354 VDD.n1073 VDD.n902 111.177
R355 VDD.n1070 VDD.n903 111.177
R356 VDD.n1052 VDD.n941 111.177
R357 VDD.n1049 VDD.n942 111.177
R358 VDD.n1741 VDD.t11 108.719
R359 VDD.n1006 VDD.n989 106.648
R360 VDD.n1003 VDD.n34 101.276
R361 VDD.n1006 VDD.n1003 101.206
R362 VDD.n1762 VDD.n1761 92.5005
R363 VDD.n1763 VDD.n1762 92.5005
R364 VDD.n1767 VDD.n1766 92.5005
R365 VDD.n1766 VDD.n1765 92.5005
R366 VDD.n1743 VDD.n1742 92.5005
R367 VDD.n1742 VDD.n1741 92.5005
R368 VDD.n890 VDD.n118 85.9427
R369 VDD.n1015 VDD.n118 85.9427
R370 VDD.n1706 VDD.n84 85.9427
R371 VDD.n1706 VDD.n158 85.9427
R372 VDD.n1706 VDD.n86 85.9427
R373 VDD.n1706 VDD.n156 85.9427
R374 VDD.n1706 VDD.n154 85.9427
R375 VDD.n1706 VDD.n152 85.9427
R376 VDD.n1706 VDD.n151 85.9427
R377 VDD.n1706 VDD.n149 85.9427
R378 VDD.n1706 VDD.n93 85.9427
R379 VDD.n1706 VDD.n147 85.9427
R380 VDD.n1706 VDD.n95 85.9427
R381 VDD.n1706 VDD.n145 85.9427
R382 VDD.n1706 VDD.n143 85.9427
R383 VDD.n1706 VDD.n141 85.9427
R384 VDD.n1706 VDD.n140 85.9427
R385 VDD.n1706 VDD.n138 85.9427
R386 VDD.n1706 VDD.n102 85.9427
R387 VDD.n1706 VDD.n136 85.9427
R388 VDD.n1706 VDD.n104 85.9427
R389 VDD.n1706 VDD.n134 85.9427
R390 VDD.n1706 VDD.n132 85.9427
R391 VDD.n1706 VDD.n130 85.9427
R392 VDD.n1706 VDD.n129 85.9427
R393 VDD.n1706 VDD.n127 85.9427
R394 VDD.n1706 VDD.n111 85.9427
R395 VDD.n1706 VDD.n125 85.9427
R396 VDD.n1706 VDD.n113 85.9427
R397 VDD.n1706 VDD.n123 85.9427
R398 VDD.n1706 VDD.n121 85.9427
R399 VDD.n1741 VDD 77.6572
R400 VDD.n52 VDD.t1 70.3649
R401 VDD.n987 VDD.t4 68.0287
R402 VDD.n1707 VDD.n82 67.5405
R403 VDD.n1100 VDD.n119 67.5405
R404 VDD.n795 VDD.n114 67.3307
R405 VDD.n618 VDD.n105 67.3307
R406 VDD.n441 VDD.n96 67.3307
R407 VDD.n264 VDD.n87 67.3307
R408 VDD.n1030 VDD.n1029 67.3307
R409 VDD.n1657 VDD.n89 67.3307
R410 VDD.n1623 VDD.n90 67.3307
R411 VDD.n1589 VDD.n91 67.3307
R412 VDD.n1494 VDD.n98 67.3307
R413 VDD.n1460 VDD.n99 67.3307
R414 VDD.n1426 VDD.n100 67.3307
R415 VDD.n1331 VDD.n107 67.3307
R416 VDD.n1297 VDD.n108 67.3307
R417 VDD.n1263 VDD.n109 67.3307
R418 VDD.n1168 VDD.n116 67.3307
R419 VDD.n1134 VDD.n117 67.3307
R420 VDD VDD.n1740 49.0494
R421 VDD.n45 VDD.t9 47.1434
R422 VDD.n45 VDD.t15 47.1434
R423 VDD.n31 VDD.n30 41.3127
R424 VDD.n1762 VDD.n2 39.0005
R425 VDD.n32 VDD.t0 35.8207
R426 VDD.n363 VDD.n362 33.746
R427 VDD.n540 VDD.n539 33.746
R428 VDD.n717 VDD.n716 33.746
R429 VDD.n1764 VDD.n1763 33.6517
R430 VDD.n1668 VDD.n267 32.9702
R431 VDD.n1505 VDD.n444 32.9702
R432 VDD.n1342 VDD.n621 32.9702
R433 VDD.n1179 VDD.n798 32.9702
R434 VDD.n1169 VDD.n1168 28.2358
R435 VDD.n1135 VDD.n1134 28.2358
R436 VDD.n1101 VDD.n1100 28.2358
R437 VDD.n796 VDD.n795 28.2358
R438 VDD.n1332 VDD.n1331 28.2358
R439 VDD.n1298 VDD.n1297 28.2358
R440 VDD.n1264 VDD.n1263 28.2358
R441 VDD.n619 VDD.n618 28.2358
R442 VDD.n1495 VDD.n1494 28.2358
R443 VDD.n1461 VDD.n1460 28.2358
R444 VDD.n1427 VDD.n1426 28.2358
R445 VDD.n442 VDD.n441 28.2358
R446 VDD.n1658 VDD.n1657 28.2358
R447 VDD.n1624 VDD.n1623 28.2358
R448 VDD.n1590 VDD.n1589 28.2358
R449 VDD.n178 VDD.n82 28.2358
R450 VDD.n265 VDD.n264 28.2358
R451 VDD.n1071 VDD.n1070 28.2358
R452 VDD.n941 VDD.n930 28.2358
R453 VDD.n1050 VDD.n1049 28.2358
R454 VDD.n1029 VDD.n1018 28.2358
R455 VDD.t0 VDD.t2 21.1252
R456 VDD.n1013 VDD.n1012 21.0038
R457 VDD.n993 VDD.n992 20.7428
R458 VDD.n1009 VDD.n996 20.7428
R459 VDD.n1000 VDD.n999 20.7428
R460 VDD.n61 VDD.n35 20.7428
R461 VDD.n1731 VDD.n1730 20.7428
R462 VDD.n1737 VDD.n32 18.2316
R463 VDD.t13 VDD 16.5329
R464 VDD.n1746 VDD.n1745 15.7543
R465 VDD.n1760 VDD.n1 13.7851
R466 VDD.n1013 VDD.n987 13.3673
R467 VDD.n1737 VDD.n1736 13.1567
R468 VDD.n28 VDD 13.1403
R469 VDD.n1769 VDD.n1768 13.1182
R470 VDD.n1139 VDD.n123 13.1177
R471 VDD.n1105 VDD.n121 13.1177
R472 VDD.n733 VDD.n127 13.1177
R473 VDD.n749 VDD.n111 13.1177
R474 VDD.n765 VDD.n125 13.1177
R475 VDD.n1193 VDD.n113 13.1177
R476 VDD.n1302 VDD.n134 13.1177
R477 VDD.n1268 VDD.n132 13.1177
R478 VDD.n714 VDD.n130 13.1177
R479 VDD.n556 VDD.n138 13.1177
R480 VDD.n572 VDD.n102 13.1177
R481 VDD.n588 VDD.n136 13.1177
R482 VDD.n1356 VDD.n104 13.1177
R483 VDD.n1465 VDD.n145 13.1177
R484 VDD.n1431 VDD.n143 13.1177
R485 VDD.n537 VDD.n141 13.1177
R486 VDD.n379 VDD.n149 13.1177
R487 VDD.n395 VDD.n93 13.1177
R488 VDD.n411 VDD.n147 13.1177
R489 VDD.n1519 VDD.n95 13.1177
R490 VDD.n1628 VDD.n156 13.1177
R491 VDD.n1594 VDD.n154 13.1177
R492 VDD.n360 VDD.n152 13.1177
R493 VDD.n159 VDD.n84 13.1177
R494 VDD.n236 VDD.n158 13.1177
R495 VDD.n1682 VDD.n86 13.1177
R496 VDD.n902 VDD.n890 13.1177
R497 VDD.n1016 VDD.n1015 13.1177
R498 VDD.n893 VDD.n890 13.1177
R499 VDD.n1638 VDD.n156 13.1177
R500 VDD.n1604 VDD.n154 13.1177
R501 VDD.n1475 VDD.n145 13.1177
R502 VDD.n1441 VDD.n143 13.1177
R503 VDD.n1312 VDD.n134 13.1177
R504 VDD.n1278 VDD.n132 13.1177
R505 VDD.n1149 VDD.n123 13.1177
R506 VDD.n1115 VDD.n121 13.1177
R507 VDD.n767 VDD.n113 13.1177
R508 VDD.n751 VDD.n125 13.1177
R509 VDD.n735 VDD.n111 13.1177
R510 VDD.n720 VDD.n127 13.1177
R511 VDD.n718 VDD.n129 13.1177
R512 VDD.n590 VDD.n104 13.1177
R513 VDD.n574 VDD.n136 13.1177
R514 VDD.n558 VDD.n102 13.1177
R515 VDD.n543 VDD.n138 13.1177
R516 VDD.n541 VDD.n140 13.1177
R517 VDD.n413 VDD.n95 13.1177
R518 VDD.n397 VDD.n147 13.1177
R519 VDD.n381 VDD.n93 13.1177
R520 VDD.n366 VDD.n149 13.1177
R521 VDD.n364 VDD.n151 13.1177
R522 VDD.n244 VDD.n86 13.1177
R523 VDD.n160 VDD.n158 13.1177
R524 VDD.n207 VDD.n84 13.1177
R525 VDD.n1736 VDD.n1735 12.9547
R526 VDD.n1735 VDD.n33 12.9547
R527 VDD.n1012 VDD.n988 12.4812
R528 VDD.n1762 VDD.n4 12.0005
R529 VDD.n32 VDD.t10 11.7875
R530 VDD.n862 VDD.n119 11.5452
R531 VDD.n1708 VDD.n1707 11.5452
R532 VDD.n1005 VDD.n988 11.3763
R533 VDD.n1004 VDD.n33 10.8033
R534 VDD.n1005 VDD.n1004 10.7957
R535 VDD.n1009 VDD.n1008 10.4098
R536 VDD.n1763 VDD.n3 10.3547
R537 VDD.n1171 VDD.n124 9.38471
R538 VDD.n1181 VDD.n115 9.38471
R539 VDD.n1334 VDD.n135 9.38471
R540 VDD.n1344 VDD.n106 9.38471
R541 VDD.n1497 VDD.n146 9.38471
R542 VDD.n1507 VDD.n97 9.38471
R543 VDD.n1660 VDD.n157 9.38471
R544 VDD.n1670 VDD.n88 9.38471
R545 VDD.n1668 VDD.n1667 9.3005
R546 VDD.n1587 VDD.n1586 9.3005
R547 VDD.n1621 VDD.n1620 9.3005
R548 VDD.n1655 VDD.n1654 9.3005
R549 VDD.n270 VDD.n267 9.3005
R550 VDD.n1636 VDD.n1635 9.3005
R551 VDD.n1602 VDD.n1601 9.3005
R552 VDD.n1505 VDD.n1504 9.3005
R553 VDD.n1424 VDD.n1423 9.3005
R554 VDD.n1458 VDD.n1457 9.3005
R555 VDD.n1492 VDD.n1491 9.3005
R556 VDD.n447 VDD.n444 9.3005
R557 VDD.n1473 VDD.n1472 9.3005
R558 VDD.n1439 VDD.n1438 9.3005
R559 VDD.n1342 VDD.n1341 9.3005
R560 VDD.n1261 VDD.n1260 9.3005
R561 VDD.n1295 VDD.n1294 9.3005
R562 VDD.n1329 VDD.n1328 9.3005
R563 VDD.n624 VDD.n621 9.3005
R564 VDD.n1310 VDD.n1309 9.3005
R565 VDD.n1276 VDD.n1275 9.3005
R566 VDD.n1179 VDD.n1178 9.3005
R567 VDD.n1098 VDD.n1097 9.3005
R568 VDD.n1132 VDD.n1131 9.3005
R569 VDD.n1166 VDD.n1165 9.3005
R570 VDD.n801 VDD.n798 9.3005
R571 VDD.n1147 VDD.n1146 9.3005
R572 VDD.n1113 VDD.n1112 9.3005
R573 VDD.n1191 VDD.n1190 9.3005
R574 VDD.n1205 VDD.n1204 9.3005
R575 VDD.n1217 VDD.n1216 9.3005
R576 VDD.n1229 VDD.n1228 9.3005
R577 VDD.n1241 VDD.n1240 9.3005
R578 VDD.n1354 VDD.n1353 9.3005
R579 VDD.n1368 VDD.n1367 9.3005
R580 VDD.n1380 VDD.n1379 9.3005
R581 VDD.n1392 VDD.n1391 9.3005
R582 VDD.n1404 VDD.n1403 9.3005
R583 VDD.n1517 VDD.n1516 9.3005
R584 VDD.n1531 VDD.n1530 9.3005
R585 VDD.n1543 VDD.n1542 9.3005
R586 VDD.n1555 VDD.n1554 9.3005
R587 VDD.n1567 VDD.n1566 9.3005
R588 VDD.n1680 VDD.n1679 9.3005
R589 VDD.n243 VDD.n242 9.3005
R590 VDD.n234 VDD.n165 9.3005
R591 VDD.n191 VDD.n190 9.3005
R592 VDD.n210 VDD.n209 9.3005
R593 VDD.n900 VDD.n899 9.3005
R594 VDD.n1068 VDD.n1067 9.3005
R595 VDD.n939 VDD.n938 9.3005
R596 VDD.n1047 VDD.n1046 9.3005
R597 VDD.n1027 VDD.n1026 9.3005
R598 VDD.n1075 VDD.n1074 9.3005
R599 VDD.n1074 VDD.n1073 9.3005
R600 VDD.n931 VDD.n906 9.3005
R601 VDD.n931 VDD.n903 9.3005
R602 VDD.n1054 VDD.n1053 9.3005
R603 VDD.n1053 VDD.n1052 9.3005
R604 VDD.n1019 VDD.n945 9.3005
R605 VDD.n1019 VDD.n942 9.3005
R606 VDD.n1033 VDD.n1032 9.3005
R607 VDD.n1032 VDD.n1031 9.3005
R608 VDD.n892 VDD.n891 9.3005
R609 VDD.n892 VDD.n118 9.3005
R610 VDD.n358 VDD.n331 9.3005
R611 VDD.n359 VDD.n358 9.3005
R612 VDD.n1592 VDD.n307 9.3005
R613 VDD.n1593 VDD.n1592 9.3005
R614 VDD.n1626 VDD.n274 9.3005
R615 VDD.n1627 VDD.n1626 9.3005
R616 VDD.n1660 VDD.n271 9.3005
R617 VDD.n1641 VDD.n1640 9.3005
R618 VDD.n1640 VDD.n1639 9.3005
R619 VDD.n1607 VDD.n1606 9.3005
R620 VDD.n1606 VDD.n1605 9.3005
R621 VDD.n535 VDD.n508 9.3005
R622 VDD.n536 VDD.n535 9.3005
R623 VDD.n1429 VDD.n484 9.3005
R624 VDD.n1430 VDD.n1429 9.3005
R625 VDD.n1463 VDD.n451 9.3005
R626 VDD.n1464 VDD.n1463 9.3005
R627 VDD.n1497 VDD.n448 9.3005
R628 VDD.n1478 VDD.n1477 9.3005
R629 VDD.n1477 VDD.n1476 9.3005
R630 VDD.n1444 VDD.n1443 9.3005
R631 VDD.n1443 VDD.n1442 9.3005
R632 VDD.n712 VDD.n685 9.3005
R633 VDD.n713 VDD.n712 9.3005
R634 VDD.n1266 VDD.n661 9.3005
R635 VDD.n1267 VDD.n1266 9.3005
R636 VDD.n1300 VDD.n628 9.3005
R637 VDD.n1301 VDD.n1300 9.3005
R638 VDD.n1334 VDD.n625 9.3005
R639 VDD.n1315 VDD.n1314 9.3005
R640 VDD.n1314 VDD.n1313 9.3005
R641 VDD.n1281 VDD.n1280 9.3005
R642 VDD.n1280 VDD.n1279 9.3005
R643 VDD.n1103 VDD.n838 9.3005
R644 VDD.n1104 VDD.n1103 9.3005
R645 VDD.n1137 VDD.n805 9.3005
R646 VDD.n1138 VDD.n1137 9.3005
R647 VDD.n1171 VDD.n802 9.3005
R648 VDD.n1152 VDD.n1151 9.3005
R649 VDD.n1151 VDD.n1150 9.3005
R650 VDD.n1118 VDD.n1117 9.3005
R651 VDD.n1117 VDD.n1116 9.3005
R652 VDD.n863 VDD.n862 9.3005