* NGSPICE file created from hgu_delay_no_code_flat.ext - technology: sky130A

.subckt hgu_delay_no_code_flat IN OUT code[3] code[1] code[2] code[0] code_offset
+ VSS VDD
X0 x9.output_stack x10.Y.t2 x5[7].floating.t7 VDD.t17 sky130_fd_pr__pfet_01v8 ad=0.101 pd=0.9 as=0.122 ps=1.42 w=0.42 l=0.15
X1 x9.output_stack code[2].t0 x4[3].floating VSS.t9 sky130_fd_pr__nfet_01v8 ad=0.0966 pd=0.88 as=0.122 ps=1.42 w=0.42 l=0.15
X2 x5[7].floating.t6 x10.Y.t3 x9.output_stack VDD.t17 sky130_fd_pr__pfet_01v8 ad=0.122 pd=1.42 as=0.101 ps=0.9 w=0.42 l=0.15
X3 x9.output_stack code_offset.t0 x7.floating VSS.t9 sky130_fd_pr__nfet_01v8 ad=0.122 pd=1.42 as=0.122 ps=1.42 w=0.42 l=0.15
X4 a_15703_1340# OUT.t2 VDD.t15 VSS.t0 sky130_fd_pr__nfet_01v8 ad=0.13 pd=1.46 as=0.0693 ps=0.75 w=0.42 l=0.15
X5 x3[1].floating code[1].t0 x9.output_stack VSS.t9 sky130_fd_pr__nfet_01v8 ad=0.122 pd=1.42 as=0.0966 ps=0.88 w=0.42 l=0.15
X6 a_9893_879# IN.t0 a_9805_879# VSS.t4 sky130_fd_pr__nfet_01v8 ad=0.0441 pd=0.63 as=0.122 ps=1.42 w=0.42 l=0.15
X7 a_9965_465# IN.t1 a_9893_465# VSS.t3 sky130_fd_pr__nfet_01v8 ad=0.122 pd=1.42 as=0.0441 ps=0.63 w=0.42 l=0.15
X8 a_9918_2268# IN.t2 a_9830_2130# VDD.t16 sky130_fd_pr__pfet_01v8_hvt ad=0.122 pd=1.42 as=0.122 ps=1.42 w=0.42 l=0.15
X9 a_9965_1017# IN.t3 a_9893_1017# VSS.t3 sky130_fd_pr__nfet_01v8 ad=0.122 pd=1.42 as=0.0441 ps=0.63 w=0.42 l=0.15
X10 a_9918_2544# IN.t4 a_9830_2682# VDD.t8 sky130_fd_pr__pfet_01v8_hvt ad=0.122 pd=1.42 as=0.122 ps=1.42 w=0.42 l=0.15
X11 a_15703_1340# x9.output_stack VSS.t2 VSS.t1 sky130_fd_pr__nfet_01v8 ad=0.122 pd=1.42 as=0.122 ps=1.42 w=0.42 l=0.15
X12 a_15703_1681# x9.output_stack OUT.t1 VDD.t2 sky130_fd_pr__pfet_01v8_hvt ad=0.0651 pd=0.73 as=0.122 ps=1.42 w=0.42 l=0.15
X13 x4[3].floating code[2].t1 x9.output_stack VSS.t9 sky130_fd_pr__nfet_01v8 ad=0.122 pd=1.42 as=0.0966 ps=0.88 w=0.42 l=0.15
X14 VDD.t3 OUT.t3 a_15703_1340# VSS.t0 sky130_fd_pr__nfet_01v8 ad=0.0693 pd=0.75 as=0.0651 ps=0.73 w=0.42 l=0.15
X15 a_9893_465# IN.t5 a_9805_327# VSS.t4 sky130_fd_pr__nfet_01v8 ad=0.0441 pd=0.63 as=0.122 ps=1.42 w=0.42 l=0.15
X16 VDD.t10 code_offset.t1 x6.SW VDD.t9 sky130_fd_pr__pfet_01v8_hvt ad=0.26 pd=2.52 as=0.26 ps=2.52 w=1 l=0.15
X17 VSS.t10 IN.t6 a_9893_327# VSS.t3 sky130_fd_pr__nfet_01v8 ad=0.122 pd=1.42 as=0.0441 ps=0.63 w=0.42 l=0.15
X18 x9.output_stack x10.Y.t4 x5[7].floating.t5 VDD.t17 sky130_fd_pr__pfet_01v8 ad=0.101 pd=0.9 as=0.122 ps=1.42 w=0.42 l=0.15
X19 x5[7].floating.t4 x10.Y.t5 x9.output_stack VDD.t17 sky130_fd_pr__pfet_01v8 ad=0.122 pd=1.42 as=0.101 ps=0.9 w=0.42 l=0.15
X20 a_9918_2544# IN.t7 a_9830_2406# VDD.t4 sky130_fd_pr__pfet_01v8_hvt ad=0.122 pd=1.42 as=0.122 ps=1.42 w=0.42 l=0.15
X21 x9.output_stack code[1].t1 x3[1].floating VSS.t9 sky130_fd_pr__nfet_01v8 ad=0.0966 pd=0.88 as=0.122 ps=1.42 w=0.42 l=0.15
X22 a_9965_741# IN.t8 a_9893_741# VSS.t3 sky130_fd_pr__nfet_01v8 ad=0.122 pd=1.42 as=0.0441 ps=0.63 w=0.42 l=0.15
X23 a_9893_327# IN.t9 a_9805_327# VSS.t4 sky130_fd_pr__nfet_01v8 ad=0.0441 pd=0.63 as=0.122 ps=1.42 w=0.42 l=0.15
X24 x10.Y.t1 code[3].t0 VDD.t13 VDD.t12 sky130_fd_pr__pfet_01v8_hvt ad=0.26 pd=2.52 as=0.26 ps=2.52 w=1 l=0.15
X25 a_15703_1681# x9.output_stack VDD.t1 VDD.t0 sky130_fd_pr__pfet_01v8_hvt ad=0.122 pd=1.42 as=0.122 ps=1.42 w=0.42 l=0.15
X26 x9.output_stack x6.SW x6.floating VDD.t11 sky130_fd_pr__pfet_01v8 ad=0.122 pd=1.42 as=0.122 ps=1.42 w=0.42 l=0.15
X27 VSS.t12 code_offset.t2 x6.SW VSS.t11 sky130_fd_pr__nfet_01v8 ad=0.169 pd=1.82 as=0.169 ps=1.82 w=0.65 l=0.15
X28 a_9893_1293# IN.t10 a_9805_1155# VSS.t4 sky130_fd_pr__nfet_01v8 ad=0.0441 pd=0.63 as=0.122 ps=1.42 w=0.42 l=0.15
X29 x5[7].floating.t3 x10.Y.t6 x9.output_stack VDD.t17 sky130_fd_pr__pfet_01v8 ad=0.122 pd=1.42 as=0.101 ps=0.9 w=0.42 l=0.15
X30 a_15703_1681# OUT.t4 VSS.t6 VDD.t2 sky130_fd_pr__pfet_01v8_hvt ad=0.13 pd=1.46 as=0.0693 ps=0.75 w=0.42 l=0.15
X31 a_9893_741# IN.t11 a_9805_603# VSS.t4 sky130_fd_pr__nfet_01v8 ad=0.0441 pd=0.63 as=0.122 ps=1.42 w=0.42 l=0.15
X32 x9.output_stack IN.t12 a_9830_2130# VDD.t14 sky130_fd_pr__pfet_01v8_hvt ad=0.122 pd=1.42 as=0.122 ps=1.42 w=0.42 l=0.15
X33 x5[7].floating.t2 x10.Y.t7 x9.output_stack VDD.t17 sky130_fd_pr__pfet_01v8 ad=0.122 pd=1.42 as=0.101 ps=0.9 w=0.42 l=0.15
X34 x9.output_stack x10.Y.t8 x5[7].floating.t1 VDD.t17 sky130_fd_pr__pfet_01v8 ad=0.101 pd=0.9 as=0.122 ps=1.42 w=0.42 l=0.15
X35 x9.output_stack code[2].t2 x4[3].floating VSS.t9 sky130_fd_pr__nfet_01v8 ad=0.0966 pd=0.88 as=0.122 ps=1.42 w=0.42 l=0.15
X36 a_9965_465# IN.t13 a_9893_603# VSS.t3 sky130_fd_pr__nfet_01v8 ad=0.122 pd=1.42 as=0.0441 ps=0.63 w=0.42 l=0.15
X37 a_9918_2268# IN.t14 a_9830_2406# VDD.t7 sky130_fd_pr__pfet_01v8_hvt ad=0.122 pd=1.42 as=0.122 ps=1.42 w=0.42 l=0.15
X38 x4[3].floating code[2].t3 x9.output_stack VSS.t9 sky130_fd_pr__nfet_01v8 ad=0.122 pd=1.42 as=0.0966 ps=0.88 w=0.42 l=0.15
X39 a_15703_1340# x9.output_stack OUT.t0 VSS.t0 sky130_fd_pr__nfet_01v8 ad=0.0651 pd=0.73 as=0.122 ps=1.42 w=0.42 l=0.15
X40 x9.output_stack IN.t15 a_9893_1293# VSS.t3 sky130_fd_pr__nfet_01v8 ad=0.122 pd=1.42 as=0.0441 ps=0.63 w=0.42 l=0.15
X41 x10.Y.t0 code[3].t1 VSS.t8 VSS.t7 sky130_fd_pr__nfet_01v8 ad=0.169 pd=1.82 as=0.169 ps=1.82 w=0.65 l=0.15
X42 a_9893_1155# IN.t16 a_9805_1155# VSS.t4 sky130_fd_pr__nfet_01v8 ad=0.0441 pd=0.63 as=0.122 ps=1.42 w=0.42 l=0.15
X43 VDD.t6 IN.t17 a_9830_2682# VDD.t5 sky130_fd_pr__pfet_01v8_hvt ad=0.122 pd=1.42 as=0.122 ps=1.42 w=0.42 l=0.15
X44 x9.output_stack x10.Y.t9 x5[7].floating.t0 VDD.t17 sky130_fd_pr__pfet_01v8 ad=0.101 pd=0.9 as=0.122 ps=1.42 w=0.42 l=0.15
X45 VSS.t5 OUT.t5 a_15703_1681# VDD.t2 sky130_fd_pr__pfet_01v8_hvt ad=0.0693 pd=0.75 as=0.0651 ps=0.73 w=0.42 l=0.15
X46 x2.floating code[0].t0 x9.output_stack VSS.t9 sky130_fd_pr__nfet_01v8 ad=0.122 pd=1.42 as=0.124 ps=1.43 w=0.42 l=0.15
X47 a_9893_603# IN.t18 a_9805_603# VSS.t4 sky130_fd_pr__nfet_01v8 ad=0.0441 pd=0.63 as=0.122 ps=1.42 w=0.42 l=0.15
X48 a_9965_1017# IN.t19 a_9893_1155# VSS.t3 sky130_fd_pr__nfet_01v8 ad=0.122 pd=1.42 as=0.0441 ps=0.63 w=0.42 l=0.15
X49 a_9965_741# IN.t20 a_9893_879# VSS.t3 sky130_fd_pr__nfet_01v8 ad=0.122 pd=1.42 as=0.0441 ps=0.63 w=0.42 l=0.15
X50 a_9893_1017# IN.t21 a_9805_879# VSS.t4 sky130_fd_pr__nfet_01v8 ad=0.0441 pd=0.63 as=0.122 ps=1.42 w=0.42 l=0.15
R0 x10.Y x10.Y.t6 154.847
R1 x10.Y x10.Y.t8 154.8
R2 x10.Y x10.Y.t7 154.8
R3 x10.Y x10.Y.t2 154.8
R4 x10.Y x10.Y.t3 154.8
R5 x10.Y x10.Y.t4 154.8
R6 x10.Y x10.Y.t5 154.8
R7 x10.Y x10.Y.t9 154.8
R8 x10.Y.n0 x10.Y 134.239
R9 x10.Y x10.Y.t0 106.635
R10 x10.Y.n2 x10.Y.t1 24.6567
R11 x10.Y.n5 x10.Y.n4 12.4089
R12 x10.Y.n3 x10.Y.n2 9.12522
R13 x10.Y.n4 x10.Y.n3 7.34048
R14 x10.Y.n5 x10.Y 2.22659
R15 x10.Y.n2 x10.Y.n1 1.93377
R16 x10.Y x10.Y.n5 1.55202
R17 x10.Y.n3 x10.Y.n0 0.69928
R18 x5[7].floating.n95 x5[7].floating.t7 68.0345
R19 x5[7].floating.n24 x5[7].floating.t2 68.0345
R20 x5[7].floating.n42 x5[7].floating.t1 68.0345
R21 x5[7].floating.n54 x5[7].floating.t3 68.0345
R22 x5[7].floating.n154 x5[7].floating.t0 68.0345
R23 x5[7].floating.n142 x5[7].floating.t4 68.0345
R24 x5[7].floating.n12 x5[7].floating.t5 68.0345
R25 x5[7].floating.n109 x5[7].floating.t6 68.0345
R26 x5[7].floating.n73 x5[7].floating.n35 0.660401
R27 x5[7].floating.n91 x5[7].floating.n90 0.660401
R28 x5[7].floating.n130 x5[7].floating.n20 0.660401
R29 x5[7].floating.n139 x5[7].floating.n5 0.660401
R30 x5[7].floating.n121 x5[7].floating.n120 0.660401
R31 x5[7].floating.n60 x5[7].floating.n59 0.320345
R32 x5[7].floating.n160 x5[7].floating.n159 0.308269
R33 x5[7].floating.n161 x5[7].floating.n160 0.173084
R34 x5[7].floating.n61 x5[7].floating.n60 0.162103
R35 x5[7].floating.n160 x5[7].floating 0.100688
R36 x5[7].floating.n60 x5[7].floating 0.0755007
R37 x5[7].floating.n36 x5[7].floating.n35 0.0716912
R38 x5[7].floating.n35 x5[7].floating.n34 0.0716912
R39 x5[7].floating.n6 x5[7].floating.n5 0.0716912
R40 x5[7].floating.n5 x5[7].floating.n4 0.0716912
R41 x5[7].floating.n74 x5[7].floating.n73 0.0716912
R42 x5[7].floating.n122 x5[7].floating.n121 0.0716912
R43 x5[7].floating.n140 x5[7].floating.n139 0.0716912
R44 x5[7].floating.n120 x5[7].floating.n105 0.0716912
R45 x5[7].floating.n120 x5[7].floating.n119 0.0716912
R46 x5[7].floating.n40 x5[7].floating.n39 0.0557941
R47 x5[7].floating.n39 x5[7].floating.n38 0.0557941
R48 x5[7].floating.n38 x5[7].floating.n37 0.0557941
R49 x5[7].floating.n37 x5[7].floating.n36 0.0557941
R50 x5[7].floating.n34 x5[7].floating.n33 0.0557941
R51 x5[7].floating.n33 x5[7].floating.n32 0.0557941
R52 x5[7].floating.n32 x5[7].floating.n31 0.0557941
R53 x5[7].floating.n31 x5[7].floating.n30 0.0557941
R54 x5[7].floating.n10 x5[7].floating.n9 0.0557941
R55 x5[7].floating.n9 x5[7].floating.n8 0.0557941
R56 x5[7].floating.n8 x5[7].floating.n7 0.0557941
R57 x5[7].floating.n7 x5[7].floating.n6 0.0557941
R58 x5[7].floating.n4 x5[7].floating.n3 0.0557941
R59 x5[7].floating.n3 x5[7].floating.n2 0.0557941
R60 x5[7].floating.n2 x5[7].floating.n1 0.0557941
R61 x5[7].floating.n1 x5[7].floating.n0 0.0557941
R62 x5[7].floating.n69 x5[7].floating.n68 0.0557941
R63 x5[7].floating.n70 x5[7].floating.n69 0.0557941
R64 x5[7].floating.n71 x5[7].floating.n70 0.0557941
R65 x5[7].floating.n72 x5[7].floating.n71 0.0557941
R66 x5[7].floating.n76 x5[7].floating.n75 0.0557941
R67 x5[7].floating.n77 x5[7].floating.n76 0.0557941
R68 x5[7].floating.n78 x5[7].floating.n77 0.0557941
R69 x5[7].floating.n86 x5[7].floating.n85 0.0557941
R70 x5[7].floating.n85 x5[7].floating.n84 0.0557941
R71 x5[7].floating.n84 x5[7].floating.n83 0.0557941
R72 x5[7].floating.n83 x5[7].floating.n82 0.0557941
R73 x5[7].floating.n124 x5[7].floating.n123 0.0557941
R74 x5[7].floating.n125 x5[7].floating.n124 0.0557941
R75 x5[7].floating.n126 x5[7].floating.n125 0.0557941
R76 x5[7].floating.n135 x5[7].floating.n134 0.0557941
R77 x5[7].floating.n136 x5[7].floating.n135 0.0557941
R78 x5[7].floating.n137 x5[7].floating.n136 0.0557941
R79 x5[7].floating.n138 x5[7].floating.n137 0.0557941
R80 x5[7].floating.n171 x5[7].floating.n170 0.0557941
R81 x5[7].floating.n170 x5[7].floating.n169 0.0557941
R82 x5[7].floating.n169 x5[7].floating.n168 0.0557941
R83 x5[7].floating.n102 x5[7].floating.n101 0.0557941
R84 x5[7].floating.n103 x5[7].floating.n102 0.0557941
R85 x5[7].floating.n104 x5[7].floating.n103 0.0557941
R86 x5[7].floating.n105 x5[7].floating.n104 0.0557941
R87 x5[7].floating.n119 x5[7].floating.n118 0.0557941
R88 x5[7].floating.n118 x5[7].floating.n117 0.0557941
R89 x5[7].floating.n117 x5[7].floating.n116 0.0557941
R90 x5[7].floating.n116 x5[7].floating.n115 0.0557941
R91 x5[7].floating.n65 x5[7].floating.n64 0.0537206
R92 x5[7].floating.n90 x5[7].floating.n89 0.0537206
R93 x5[7].floating.n131 x5[7].floating.n130 0.0537206
R94 x5[7].floating.n164 x5[7].floating.n163 0.0537206
R95 x5[7].floating.n64 x5[7].floating.n63 0.0530294
R96 x5[7].floating.n90 x5[7].floating.n81 0.0530294
R97 x5[7].floating.n130 x5[7].floating.n129 0.0530294
R98 x5[7].floating.n165 x5[7].floating.n164 0.0530294
R99 x5[7].floating.n92 x5[7].floating.n91 0.0529559
R100 x5[7].floating.n50 x5[7].floating.n49 0.0529559
R101 x5[7].floating.n20 x5[7].floating.n19 0.0529559
R102 x5[7].floating.n151 x5[7].floating.n150 0.0529559
R103 x5[7].floating.n51 x5[7].floating.n50 0.0524559
R104 x5[7].floating.n91 x5[7].floating.n21 0.0524559
R105 x5[7].floating.n106 x5[7].floating.n20 0.0524559
R106 x5[7].floating.n150 x5[7].floating.n149 0.0524559
R107 x5[7].floating.n79 x5[7].floating.n78 0.0523382
R108 x5[7].floating.n127 x5[7].floating.n126 0.0523382
R109 x5[7].floating.n168 x5[7].floating.n167 0.0523382
R110 x5[7].floating.n68 x5[7].floating.n67 0.0516471
R111 x5[7].floating.n87 x5[7].floating.n86 0.0516471
R112 x5[7].floating.n134 x5[7].floating.n133 0.0516471
R113 x5[7].floating.n73 x5[7].floating 0.0495735
R114 x5[7].floating.n121 x5[7].floating 0.0495735
R115 x5[7].floating.n139 x5[7].floating 0.0495735
R116 x5[7].floating.n98 x5[7].floating.n97 0.0408846
R117 x5[7].floating.n45 x5[7].floating.n44 0.0408846
R118 x5[7].floating.n157 x5[7].floating.n156 0.0408846
R119 x5[7].floating.n15 x5[7].floating.n14 0.0408846
R120 x5[7].floating.n75 x5[7].floating 0.0336765
R121 x5[7].floating.n123 x5[7].floating 0.0336765
R122 x5[7].floating x5[7].floating.n171 0.0336765
R123 x5[7].floating.n30 x5[7].floating.n29 0.0271618
R124 x5[7].floating.n115 x5[7].floating.n114 0.0271618
R125 x5[7].floating.n101 x5[7].floating.n100 0.0266618
R126 x5[7].floating.n41 x5[7].floating.n40 0.0266618
R127 x5[7].floating.n11 x5[7].floating.n10 0.0266618
R128 x5[7].floating x5[7].floating.n72 0.0226176
R129 x5[7].floating x5[7].floating.n74 0.0226176
R130 x5[7].floating.n82 x5[7].floating 0.0226176
R131 x5[7].floating x5[7].floating.n122 0.0226176
R132 x5[7].floating x5[7].floating.n138 0.0226176
R133 x5[7].floating x5[7].floating.n140 0.0226176
R134 x5[7].floating.n63 x5[7].floating.n62 0.0191618
R135 x5[7].floating.n81 x5[7].floating.n80 0.0191618
R136 x5[7].floating.n129 x5[7].floating.n128 0.0191618
R137 x5[7].floating.n166 x5[7].floating.n165 0.0191618
R138 x5[7].floating.n66 x5[7].floating.n65 0.0184706
R139 x5[7].floating.n89 x5[7].floating.n88 0.0184706
R140 x5[7].floating.n132 x5[7].floating.n131 0.0184706
R141 x5[7].floating.n163 x5[7].floating.n162 0.0184706
R142 x5[7].floating.n100 x5[7].floating.n99 0.014
R143 x5[7].floating.n52 x5[7].floating.n51 0.014
R144 x5[7].floating.n46 x5[7].floating.n41 0.014
R145 x5[7].floating.n22 x5[7].floating.n21 0.014
R146 x5[7].floating.n16 x5[7].floating.n11 0.014
R147 x5[7].floating.n149 x5[7].floating.n148 0.014
R148 x5[7].floating.n159 x5[7].floating.n158 0.014
R149 x5[7].floating.n107 x5[7].floating.n106 0.014
R150 x5[7].floating.n93 x5[7].floating.n92 0.0135
R151 x5[7].floating.n59 x5[7].floating.n58 0.0135
R152 x5[7].floating.n49 x5[7].floating.n48 0.0135
R153 x5[7].floating.n29 x5[7].floating.n28 0.0135
R154 x5[7].floating.n19 x5[7].floating.n18 0.0135
R155 x5[7].floating.n146 x5[7].floating.n141 0.0135
R156 x5[7].floating.n152 x5[7].floating.n151 0.0135
R157 x5[7].floating.n114 x5[7].floating.n113 0.0135
R158 x5[7].floating.n27 x5[7].floating.n26 0.0120385
R159 x5[7].floating.n57 x5[7].floating.n56 0.0120385
R160 x5[7].floating.n145 x5[7].floating.n144 0.0120385
R161 x5[7].floating.n112 x5[7].floating.n111 0.0120385
R162 x5[7].floating.n67 x5[7].floating.n66 0.00464706
R163 x5[7].floating.n88 x5[7].floating.n87 0.00464706
R164 x5[7].floating.n133 x5[7].floating.n132 0.00464706
R165 x5[7].floating.n162 x5[7].floating.n161 0.00464706
R166 x5[7].floating.n62 x5[7].floating.n61 0.00395588
R167 x5[7].floating.n80 x5[7].floating.n79 0.00395588
R168 x5[7].floating.n128 x5[7].floating.n127 0.00395588
R169 x5[7].floating.n167 x5[7].floating.n166 0.00395588
R170 x5[7].floating.n110 x5[7].floating.n109 0.00359614
R171 x5[7].floating.n25 x5[7].floating.n24 0.00359614
R172 x5[7].floating.n55 x5[7].floating.n54 0.00359614
R173 x5[7].floating.n143 x5[7].floating.n142 0.00359614
R174 x5[7].floating.n94 x5[7].floating.n93 0.0035
R175 x5[7].floating.n58 x5[7].floating.n53 0.0035
R176 x5[7].floating.n48 x5[7].floating.n47 0.0035
R177 x5[7].floating.n28 x5[7].floating.n23 0.0035
R178 x5[7].floating.n18 x5[7].floating.n17 0.0035
R179 x5[7].floating.n147 x5[7].floating.n146 0.0035
R180 x5[7].floating.n153 x5[7].floating.n152 0.0035
R181 x5[7].floating.n113 x5[7].floating.n108 0.0035
R182 x5[7].floating.n99 x5[7].floating.n94 0.003
R183 x5[7].floating.n53 x5[7].floating.n52 0.003
R184 x5[7].floating.n47 x5[7].floating.n46 0.003
R185 x5[7].floating.n23 x5[7].floating.n22 0.003
R186 x5[7].floating.n17 x5[7].floating.n16 0.003
R187 x5[7].floating.n148 x5[7].floating.n147 0.003
R188 x5[7].floating.n158 x5[7].floating.n153 0.003
R189 x5[7].floating.n108 x5[7].floating.n107 0.003
R190 x5[7].floating.n155 x5[7].floating.n154 0.00277942
R191 x5[7].floating.n96 x5[7].floating.n95 0.0023396
R192 x5[7].floating.n43 x5[7].floating.n42 0.0023396
R193 x5[7].floating.n13 x5[7].floating.n12 0.0023396
R194 x5[7].floating.n157 x5[7].floating.n155 0.00233747
R195 x5[7].floating.n98 x5[7].floating.n96 0.00200689
R196 x5[7].floating.n45 x5[7].floating.n43 0.00200689
R197 x5[7].floating.n15 x5[7].floating.n13 0.00200689
R198 x5[7].floating.n27 x5[7].floating.n25 0.0010233
R199 x5[7].floating.n57 x5[7].floating.n55 0.0010233
R200 x5[7].floating.n145 x5[7].floating.n143 0.0010233
R201 x5[7].floating.n112 x5[7].floating.n110 0.0010233
R202 x5[7].floating.n99 x5[7].floating.n98 0.00053972
R203 x5[7].floating.n58 x5[7].floating.n57 0.00053972
R204 x5[7].floating.n46 x5[7].floating.n45 0.00053972
R205 x5[7].floating.n28 x5[7].floating.n27 0.00053972
R206 x5[7].floating.n16 x5[7].floating.n15 0.00053972
R207 x5[7].floating.n146 x5[7].floating.n145 0.00053972
R208 x5[7].floating.n158 x5[7].floating.n157 0.00053972
R209 x5[7].floating.n113 x5[7].floating.n112 0.00053972
R210 VDD.n1717 VDD.n4 426
R211 VDD.n1741 VDD.n2 351
R212 VDD.t9 VDD.n3 258.856
R213 VDD VDD.n1715 242.981
R214 VDD.n707 VDD.n119 198.118
R215 VDD.n530 VDD.n130 198.118
R216 VDD.n353 VDD.n141 198.118
R217 VDD.n997 VDD.n996 198.118
R218 VDD.n352 VDD.n142 198.118
R219 VDD.n529 VDD.n131 198.118
R220 VDD.n706 VDD.n120 198.118
R221 VDD.t12 VDD.n1739 188.965
R222 VDD.n892 VDD.n891 185
R223 VDD.n1053 VDD.n879 185
R224 VDD.n922 VDD.n920 185
R225 VDD.n1032 VDD.n918 185
R226 VDD.n1002 VDD.n1000 185
R227 VDD.n1052 VDD.n1051 185
R228 VDD.n1052 VDD.n108 185
R229 VDD.n931 VDD.n930 185
R230 VDD.n931 VDD.n108 185
R231 VDD.n1031 VDD.n1030 185
R232 VDD.n1031 VDD.n108 185
R233 VDD.n1011 VDD.n1010 185
R234 VDD.n998 VDD.n957 185
R235 VDD.n884 VDD.n883 185
R236 VDD.n179 VDD.n72 185
R237 VDD.n151 VDD.n149 185
R238 VDD.n227 VDD.n226 185
R239 VDD.n1664 VDD.n236 185
R240 VDD.n254 VDD.n237 185
R241 VDD.n1639 VDD.n1638 185
R242 VDD.n1641 VDD.n1640 185
R243 VDD.n1611 VDD.n1610 185
R244 VDD.n1620 VDD.n1619 185
R245 VDD.n1605 VDD.n1604 185
R246 VDD.n1607 VDD.n1606 185
R247 VDD.n1577 VDD.n1576 185
R248 VDD.n1586 VDD.n1585 185
R249 VDD.n1571 VDD.n1570 185
R250 VDD.n1573 VDD.n1572 185
R251 VDD.n351 VDD.n350 185
R252 VDD.n370 VDD.n369 185
R253 VDD.n386 VDD.n385 185
R254 VDD.n402 VDD.n401 185
R255 VDD.n1501 VDD.n417 185
R256 VDD.n431 VDD.n418 185
R257 VDD.n1476 VDD.n1475 185
R258 VDD.n1478 VDD.n1477 185
R259 VDD.n1448 VDD.n1447 185
R260 VDD.n1457 VDD.n1456 185
R261 VDD.n1442 VDD.n1441 185
R262 VDD.n1444 VDD.n1443 185
R263 VDD.n1414 VDD.n1413 185
R264 VDD.n1423 VDD.n1422 185
R265 VDD.n1408 VDD.n1407 185
R266 VDD.n1410 VDD.n1409 185
R267 VDD.n528 VDD.n527 185
R268 VDD.n547 VDD.n546 185
R269 VDD.n563 VDD.n562 185
R270 VDD.n579 VDD.n578 185
R271 VDD.n1338 VDD.n594 185
R272 VDD.n608 VDD.n595 185
R273 VDD.n1313 VDD.n1312 185
R274 VDD.n1315 VDD.n1314 185
R275 VDD.n1285 VDD.n1284 185
R276 VDD.n1294 VDD.n1293 185
R277 VDD.n1279 VDD.n1278 185
R278 VDD.n1281 VDD.n1280 185
R279 VDD.n1251 VDD.n1250 185
R280 VDD.n1260 VDD.n1259 185
R281 VDD.n1245 VDD.n1244 185
R282 VDD.n1247 VDD.n1246 185
R283 VDD.n705 VDD.n704 185
R284 VDD.n724 VDD.n723 185
R285 VDD.n740 VDD.n739 185
R286 VDD.n756 VDD.n755 185
R287 VDD.n1175 VDD.n771 185
R288 VDD.n785 VDD.n772 185
R289 VDD.n1150 VDD.n1149 185
R290 VDD.n1152 VDD.n1151 185
R291 VDD.n1122 VDD.n1121 185
R292 VDD.n1131 VDD.n1130 185
R293 VDD.n1116 VDD.n1115 185
R294 VDD.n1118 VDD.n1117 185
R295 VDD.n1088 VDD.n1087 185
R296 VDD.n1097 VDD.n1096 185
R297 VDD.n1082 VDD.n1081 185
R298 VDD.n1084 VDD.n1083 185
R299 VDD.n758 VDD.n757 185
R300 VDD.n742 VDD.n741 185
R301 VDD.n726 VDD.n725 185
R302 VDD.n711 VDD.n710 185
R303 VDD.n787 VDD.n786 185
R304 VDD.n709 VDD.n708 185
R305 VDD.n581 VDD.n580 185
R306 VDD.n565 VDD.n564 185
R307 VDD.n549 VDD.n548 185
R308 VDD.n534 VDD.n533 185
R309 VDD.n610 VDD.n609 185
R310 VDD.n532 VDD.n531 185
R311 VDD.n404 VDD.n403 185
R312 VDD.n388 VDD.n387 185
R313 VDD.n372 VDD.n371 185
R314 VDD.n357 VDD.n356 185
R315 VDD.n433 VDD.n432 185
R316 VDD.n355 VDD.n354 185
R317 VDD.n235 VDD.n234 185
R318 VDD.n225 VDD.n150 185
R319 VDD.n198 VDD.n197 185
R320 VDD.n256 VDD.n255 185
R321 VDD.n169 VDD.n168 185
R322 VDD.n1735 VDD.n2 185
R323 VDD.n1739 VDD.n2 185
R324 VDD.n1740 VDD 160.49
R325 VDD.n1743 VDD.t13 152.88
R326 VDD.n28 VDD.t10 152.879
R327 VDD.n1740 VDD.t12 113.897
R328 VDD.n1132 VDD.n1131 111.177
R329 VDD.n1098 VDD.n1097 111.177
R330 VDD.n710 VDD.n118 111.177
R331 VDD.n725 VDD.n100 111.177
R332 VDD.n741 VDD.n116 111.177
R333 VDD.n757 VDD.n102 111.177
R334 VDD.n1295 VDD.n1294 111.177
R335 VDD.n1261 VDD.n1260 111.177
R336 VDD.n533 VDD.n129 111.177
R337 VDD.n548 VDD.n91 111.177
R338 VDD.n564 VDD.n127 111.177
R339 VDD.n580 VDD.n93 111.177
R340 VDD.n1458 VDD.n1457 111.177
R341 VDD.n1424 VDD.n1423 111.177
R342 VDD.n356 VDD.n140 111.177
R343 VDD.n371 VDD.n82 111.177
R344 VDD.n387 VDD.n138 111.177
R345 VDD.n403 VDD.n84 111.177
R346 VDD.n1621 VDD.n1620 111.177
R347 VDD.n1587 VDD.n1586 111.177
R348 VDD.n197 VDD.n196 111.177
R349 VDD.n1687 VDD.n150 111.177
R350 VDD.n234 VDD.n75 111.177
R351 VDD.n1055 VDD.n892 111.177
R352 VDD.n1052 VDD.n893 111.177
R353 VDD.n1034 VDD.n931 111.177
R354 VDD.n1031 VDD.n932 111.177
R355 VDD.n1716 VDD.t9 108.719
R356 VDD.n1742 VDD.n1741 92.5005
R357 VDD.n1741 VDD.n1740 92.5005
R358 VDD.n1718 VDD.n1717 92.5005
R359 VDD.n1717 VDD.n1716 92.5005
R360 VDD.n1737 VDD.n1736 92.5005
R361 VDD.n1738 VDD.n1737 92.5005
R362 VDD.n880 VDD.n108 85.9427
R363 VDD.n997 VDD.n108 85.9427
R364 VDD.n1688 VDD.n74 85.9427
R365 VDD.n1688 VDD.n148 85.9427
R366 VDD.n1688 VDD.n76 85.9427
R367 VDD.n1688 VDD.n146 85.9427
R368 VDD.n1688 VDD.n144 85.9427
R369 VDD.n1688 VDD.n142 85.9427
R370 VDD.n1688 VDD.n141 85.9427
R371 VDD.n1688 VDD.n139 85.9427
R372 VDD.n1688 VDD.n83 85.9427
R373 VDD.n1688 VDD.n137 85.9427
R374 VDD.n1688 VDD.n85 85.9427
R375 VDD.n1688 VDD.n135 85.9427
R376 VDD.n1688 VDD.n133 85.9427
R377 VDD.n1688 VDD.n131 85.9427
R378 VDD.n1688 VDD.n130 85.9427
R379 VDD.n1688 VDD.n128 85.9427
R380 VDD.n1688 VDD.n92 85.9427
R381 VDD.n1688 VDD.n126 85.9427
R382 VDD.n1688 VDD.n94 85.9427
R383 VDD.n1688 VDD.n124 85.9427
R384 VDD.n1688 VDD.n122 85.9427
R385 VDD.n1688 VDD.n120 85.9427
R386 VDD.n1688 VDD.n119 85.9427
R387 VDD.n1688 VDD.n117 85.9427
R388 VDD.n1688 VDD.n101 85.9427
R389 VDD.n1688 VDD.n115 85.9427
R390 VDD.n1688 VDD.n103 85.9427
R391 VDD.n1688 VDD.n113 85.9427
R392 VDD.n1688 VDD.n111 85.9427
R393 VDD.n1716 VDD 77.6572
R394 VDD.n45 VDD.t1 70.3649
R395 VDD.n977 VDD.t6 68.0287
R396 VDD.n1689 VDD.n72 67.5405
R397 VDD.n1082 VDD.n109 67.5405
R398 VDD.n785 VDD.n104 67.3307
R399 VDD.n608 VDD.n95 67.3307
R400 VDD.n431 VDD.n86 67.3307
R401 VDD.n254 VDD.n77 67.3307
R402 VDD.n1012 VDD.n1011 67.3307
R403 VDD.n1639 VDD.n79 67.3307
R404 VDD.n1605 VDD.n80 67.3307
R405 VDD.n1571 VDD.n81 67.3307
R406 VDD.n1476 VDD.n88 67.3307
R407 VDD.n1442 VDD.n89 67.3307
R408 VDD.n1408 VDD.n90 67.3307
R409 VDD.n1313 VDD.n97 67.3307
R410 VDD.n1279 VDD.n98 67.3307
R411 VDD.n1245 VDD.n99 67.3307
R412 VDD.n1150 VDD.n106 67.3307
R413 VDD.n1116 VDD.n107 67.3307
R414 VDD.t14 VDD.t0 47.6077
R415 VDD.n38 VDD.t15 47.1434
R416 VDD.n38 VDD.t3 47.1434
R417 VDD.n1737 VDD.n2 39.0005
R418 VDD.n353 VDD.n352 33.746
R419 VDD.n530 VDD.n529 33.746
R420 VDD.n707 VDD.n706 33.746
R421 VDD.n1739 VDD.n1738 33.6517
R422 VDD.n1650 VDD.n257 32.9702
R423 VDD.n1487 VDD.n434 32.9702
R424 VDD.n1324 VDD.n611 32.9702
R425 VDD.n1161 VDD.n788 32.9702
R426 VDD.n995 VDD.n994 29.4128
R427 VDD.n1151 VDD.n1150 28.2358
R428 VDD.n1117 VDD.n1116 28.2358
R429 VDD.n1083 VDD.n1082 28.2358
R430 VDD.n786 VDD.n785 28.2358
R431 VDD.n1314 VDD.n1313 28.2358
R432 VDD.n1280 VDD.n1279 28.2358
R433 VDD.n1246 VDD.n1245 28.2358
R434 VDD.n609 VDD.n608 28.2358
R435 VDD.n1477 VDD.n1476 28.2358
R436 VDD.n1443 VDD.n1442 28.2358
R437 VDD.n1409 VDD.n1408 28.2358
R438 VDD.n432 VDD.n431 28.2358
R439 VDD.n1640 VDD.n1639 28.2358
R440 VDD.n1606 VDD.n1605 28.2358
R441 VDD.n1572 VDD.n1571 28.2358
R442 VDD.n168 VDD.n72 28.2358
R443 VDD.n255 VDD.n254 28.2358
R444 VDD.n1053 VDD.n1052 28.2358
R445 VDD.n931 VDD.n920 28.2358
R446 VDD.n1032 VDD.n1031 28.2358
R447 VDD.n1011 VDD.n1000 28.2358
R448 VDD.n1721 VDD.n1720 27.3454
R449 VDD.n1735 VDD.n1 22.8875
R450 VDD.t0 VDD.t2 21.1252
R451 VDD.n981 VDD.n980 20.7428
R452 VDD.n993 VDD.n984 20.7428
R453 VDD.n992 VDD.n987 20.7428
R454 VDD.n991 VDD.n990 20.7428
R455 VDD.n1713 VDD.n1712 20.7428
R456 VDD.n993 VDD.t4 18.5229
R457 VDD.t8 VDD 16.5329
R458 VDD.n992 VDD.t7 16.3798
R459 VDD.n1744 VDD.n1743 15.4666
R460 VDD.n28 VDD 15.1421
R461 VDD.n995 VDD.n977 13.3673
R462 VDD.n1121 VDD.n113 13.1177
R463 VDD.n1087 VDD.n111 13.1177
R464 VDD.n723 VDD.n117 13.1177
R465 VDD.n739 VDD.n101 13.1177
R466 VDD.n755 VDD.n115 13.1177
R467 VDD.n1175 VDD.n103 13.1177
R468 VDD.n1284 VDD.n124 13.1177
R469 VDD.n1250 VDD.n122 13.1177
R470 VDD.n704 VDD.n120 13.1177
R471 VDD.n546 VDD.n128 13.1177
R472 VDD.n562 VDD.n92 13.1177
R473 VDD.n578 VDD.n126 13.1177
R474 VDD.n1338 VDD.n94 13.1177
R475 VDD.n1447 VDD.n135 13.1177
R476 VDD.n1413 VDD.n133 13.1177
R477 VDD.n527 VDD.n131 13.1177
R478 VDD.n369 VDD.n139 13.1177
R479 VDD.n385 VDD.n83 13.1177
R480 VDD.n401 VDD.n137 13.1177
R481 VDD.n1501 VDD.n85 13.1177
R482 VDD.n1610 VDD.n146 13.1177
R483 VDD.n1576 VDD.n144 13.1177
R484 VDD.n350 VDD.n142 13.1177
R485 VDD.n149 VDD.n74 13.1177
R486 VDD.n226 VDD.n148 13.1177
R487 VDD.n1664 VDD.n76 13.1177
R488 VDD.n892 VDD.n880 13.1177
R489 VDD.n998 VDD.n997 13.1177
R490 VDD.n883 VDD.n880 13.1177
R491 VDD.n1620 VDD.n146 13.1177
R492 VDD.n1586 VDD.n144 13.1177
R493 VDD.n1457 VDD.n135 13.1177
R494 VDD.n1423 VDD.n133 13.1177
R495 VDD.n1294 VDD.n124 13.1177
R496 VDD.n1260 VDD.n122 13.1177
R497 VDD.n1131 VDD.n113 13.1177
R498 VDD.n1097 VDD.n111 13.1177
R499 VDD.n757 VDD.n103 13.1177
R500 VDD.n741 VDD.n115 13.1177
R501 VDD.n725 VDD.n101 13.1177
R502 VDD.n710 VDD.n117 13.1177
R503 VDD.n708 VDD.n119 13.1177
R504 VDD.n580 VDD.n94 13.1177
R505 VDD.n564 VDD.n126 13.1177
R506 VDD.n548 VDD.n92 13.1177
R507 VDD.n533 VDD.n128 13.1177
R508 VDD.n531 VDD.n130 13.1177
R509 VDD.n403 VDD.n85 13.1177
R510 VDD.n387 VDD.n137 13.1177
R511 VDD.n371 VDD.n83 13.1177
R512 VDD.n356 VDD.n139 13.1177
R513 VDD.n354 VDD.n141 13.1177
R514 VDD.n234 VDD.n76 13.1177
R515 VDD.n150 VDD.n148 13.1177
R516 VDD.n197 VDD.n74 13.1177
R517 VDD.n1713 VDD.t16 12.5529
R518 VDD.n1737 VDD.n4 12.0005
R519 VDD.n1742 VDD.n1 11.9758
R520 VDD.n852 VDD.n109 11.5452
R521 VDD.n1690 VDD.n1689 11.5452
R522 VDD.n991 VDD.t16 11.4813
R523 VDD.n1721 VDD.n1718 11.2229
R524 VDD.n1738 VDD.n3 10.3547
R525 VDD.t7 VDD.n991 9.64439
R526 VDD.n1153 VDD.n114 9.38471
R527 VDD.n1163 VDD.n105 9.38471
R528 VDD.n1316 VDD.n125 9.38471
R529 VDD.n1326 VDD.n96 9.38471
R530 VDD.n1479 VDD.n136 9.38471
R531 VDD.n1489 VDD.n87 9.38471
R532 VDD.n1642 VDD.n147 9.38471
R533 VDD.n1652 VDD.n78 9.38471
R534 VDD.n1650 VDD.n1649 9.3005
R535 VDD.n1569 VDD.n1568 9.3005
R536 VDD.n1603 VDD.n1602 9.3005
R537 VDD.n1637 VDD.n1636 9.3005
R538 VDD.n260 VDD.n257 9.3005
R539 VDD.n1618 VDD.n1617 9.3005
R540 VDD.n1584 VDD.n1583 9.3005
R541 VDD.n1487 VDD.n1486 9.3005
R542 VDD.n1406 VDD.n1405 9.3005
R543 VDD.n1440 VDD.n1439 9.3005
R544 VDD.n1474 VDD.n1473 9.3005
R545 VDD.n437 VDD.n434 9.3005
R546 VDD.n1455 VDD.n1454 9.3005
R547 VDD.n1421 VDD.n1420 9.3005
R548 VDD.n1324 VDD.n1323 9.3005
R549 VDD.n1243 VDD.n1242 9.3005
R550 VDD.n1277 VDD.n1276 9.3005
R551 VDD.n1311 VDD.n1310 9.3005
R552 VDD.n614 VDD.n611 9.3005
R553 VDD.n1292 VDD.n1291 9.3005
R554 VDD.n1258 VDD.n1257 9.3005
R555 VDD.n1161 VDD.n1160 9.3005
R556 VDD.n1080 VDD.n1079 9.3005
R557 VDD.n1114 VDD.n1113 9.3005
R558 VDD.n1148 VDD.n1147 9.3005
R559 VDD.n791 VDD.n788 9.3005
R560 VDD.n1129 VDD.n1128 9.3005
R561 VDD.n1095 VDD.n1094 9.3005
R562 VDD.n1173 VDD.n1172 9.3005
R563 VDD.n1187 VDD.n1186 9.3005
R564 VDD.n1199 VDD.n1198 9.3005
R565 VDD.n1211 VDD.n1210 9.3005
R566 VDD.n1223 VDD.n1222 9.3005
R567 VDD.n1336 VDD.n1335 9.3005
R568 VDD.n1350 VDD.n1349 9.3005
R569 VDD.n1362 VDD.n1361 9.3005
R570 VDD.n1374 VDD.n1373 9.3005
R571 VDD.n1386 VDD.n1385 9.3005
R572 VDD.n1499 VDD.n1498 9.3005
R573 VDD.n1513 VDD.n1512 9.3005
R574 VDD.n1525 VDD.n1524 9.3005
R575 VDD.n1537 VDD.n1536 9.3005
R576 VDD.n1549 VDD.n1548 9.3005
R577 VDD.n1662 VDD.n1661 9.3005
R578 VDD.n233 VDD.n232 9.3005
R579 VDD.n224 VDD.n155 9.3005
R580 VDD.n181 VDD.n180 9.3005
R581 VDD.n200 VDD.n199 9.3005
R582 VDD.n890 VDD.n889 9.3005
R583 VDD.n1050 VDD.n1049 9.3005
R584 VDD.n929 VDD.n928 9.3005
R585 VDD.n1029 VDD.n1028 9.3005
R586 VDD.n1009 VDD.n1008 9.3005
R587 VDD.n1057 VDD.n1056 9.3005
R588 VDD.n1056 VDD.n1055 9.3005
R589 VDD.n921 VDD.n896 9.3005
R590 VDD.n921 VDD.n893 9.3005
R591 VDD.n1036 VDD.n1035 9.3005
R592 VDD.n1035 VDD.n1034 9.3005
R593 VDD.n1001 VDD.n935 9.3005
R594 VDD.n1001 VDD.n932 9.3005
R595 VDD.n1015 VDD.n1014 9.3005
R596 VDD.n1014 VDD.n1013 9.3005
R597 VDD.n882 VDD.n881 9.3005
R598 VDD.n882 VDD.n108 9.3005
R599 VDD.n348 VDD.n321 9.3005
R600 VDD.n349 VDD.n348 9.3005
R601 VDD.n1574 VDD.n297 9.3005
R602 VDD.n1575 VDD.n1574 9.3005
R603 VDD.n1608 VDD.n264 9.3005
R604 VDD.n1609 VDD.n1608 9.3005
R605 VDD.n1642 VDD.n261 9.3005
R606 VDD.n1623 VDD.n1622 9.3005
R607 VDD.n1622 VDD.n1621 9.3005
R608 VDD.n1589 VDD.n1588 9.3005
R609 VDD.n1588 VDD.n1587 9.3005
R610 VDD.n525 VDD.n498 9.3005
R611 VDD.n526 VDD.n525 9.3005
R612 VDD.n1411 VDD.n474 9.3005
R613 VDD.n1412 VDD.n1411 9.3005
R614 VDD.n1445 VDD.n441 9.3005
R615 VDD.n1446 VDD.n1445 9.3005
R616 VDD.n1479 VDD.n438 9.3005
R617 VDD.n1460 VDD.n1459 9.3005
R618 VDD.n1459 VDD.n1458 9.3005
R619 VDD.n1426 VDD.n1425 9.3005
R620 VDD.n1425 VDD.n1424 9.3005
R621 VDD.n702 VDD.n675 9.3005
R622 VDD.n703 VDD.n702 9.3005
R623 VDD.n1248 VDD.n651 9.3005
R624 VDD.n1249 VDD.n1248 9.3005
R625 VDD.n1282 VDD.n618 9.3005
R626 VDD.n1283 VDD.n1282 9.3005
R627 VDD.n1316 VDD.n615 9.3005
R628 VDD.n1297 VDD.n1296 9.3005
R629 VDD.n1296 VDD.n1295 9.3005
R630 VDD.n1263 VDD.n1262 9.3005
R631 VDD.n1262 VDD.n1261 9.3005
R632 VDD.n1085 VDD.n828 9.3005
R633 VDD.n1086 VDD.n1085 9.3005
R634 VDD.n1119 VDD.n795 9.3005
R635 VDD.n1120 VDD.n1119 9.3005
R636 VDD.n1153 VDD.n792 9.3005
R637 VDD.n1134 VDD.n1133 9.3005
R638 VDD.n1133 VDD.n1132 9.3005
R639 VDD.n1100 VDD.n1099 9.3005
R640 VDD.n1099 VDD.n1098 9.3005
R641 VDD.n853 VDD.n852 9.3005
R642 VDD.n1178 VDD.n1177 9.3005
R643 VDD.n1177 VDD.n1176 9.3005