* NGSPICE file created from hgu_sarlogic_8bit_logic_flat.ext - technology: sky130A

.subckt hgu_sarlogic_8bit_logic_RC sel_bit[0] sel_bit[1] eob clk_sar D[0] D[1] D[2] D[3] D[4] D[5] D[6] D[7] comparator_out check[0] check[1] check[2] check[3] check[4] check[5] check[6] reset VDD VSS
X0 VDD.t730 a_10680_2340# D[3].t1 VDD.t729 sky130_fd_pr__pfet_01v8_hvt ad=0.149 pd=1.33 as=0.26 ps=2.52 w=1 l=0.15
X1 VDD.t198 a_8289_4086# check[1].t0 VDD.t197 sky130_fd_pr__pfet_01v8_hvt ad=0.149 pd=1.33 as=0.26 ps=2.52 w=1 l=0.15
X2 VDD.t340 D[0].t2 a_8236_3239# VDD.t339 sky130_fd_pr__pfet_01v8_hvt ad=0.0864 pd=0.91 as=0.166 ps=1.8 w=0.64 l=0.15
X3 VDD.t107 a_2389_5648# eob.t4 VDD.t106 sky130_fd_pr__pfet_01v8_hvt ad=0.154 pd=1.34 as=0.135 ps=1.27 w=1 l=0.15
X4 a_12030_3213# a_11856_3239# a_12146_3239# VSS.t676 sky130_fd_pr__nfet_01v8 ad=0.0864 pd=0.91 as=0.12 ps=1.08 w=0.64 l=0.15
X5 VDD.t635 a_1338_5674# x5.X.t3 VDD.t634 sky130_fd_pr__pfet_01v8_hvt ad=0.26 pd=2.52 as=0.135 ps=1.27 w=1 l=0.15
X6 a_4971_4801# VDD.t743 VSS.t250 VSS.t249 sky130_fd_pr__nfet_01v8 ad=0.12 pd=1.08 as=0.0588 ps=0.7 w=0.42 l=0.15
X7 a_2147_5083# a_1682_4775# VDD.t449 VDD.t448 sky130_fd_pr__pfet_01v8_hvt ad=0.174 pd=1.41 as=0.225 ps=1.38 w=0.84 l=0.15
X8 a_1822_4801# x4.X.t32 VSS.t299 VSS.t298 sky130_fd_pr__nfet_01v8 ad=0.101 pd=0.99 as=0.084 ps=0.82 w=0.42 l=0.15
X9 a_11330_2340# a_11628_2640# a_11564_2732# VDD.t617 sky130_fd_pr__pfet_01v8_hvt ad=0.0567 pd=0.69 as=0.0924 ps=0.86 w=0.42 l=0.15
X10 VSS.t446 a_12030_3213# a_12737_3239# VSS.t445 sky130_fd_pr__nfet_01v8 ad=0.097 pd=0.975 as=0.109 ps=1.36 w=0.42 l=0.15
X11 a_4213_3239# a_4367_3213# a_4073_3213# VSS.t266 sky130_fd_pr__nfet_01v8 ad=0.166 pd=1.8 as=0.0864 ps=0.91 w=0.64 l=0.15
X12 a_8591_4801# check[5].t2 VSS.t139 VSS.t138 sky130_fd_pr__nfet_01v8 ad=0.066 pd=0.745 as=0.109 ps=1.36 w=0.42 l=0.15
X13 a_9710_4296# a_9238_4086# a_9954_4478# VDD.t286 sky130_fd_pr__pfet_01v8_hvt ad=0.0567 pd=0.69 as=0.0945 ps=0.87 w=0.42 l=0.15
X14 VSS.t61 x30.Q_N a_7185_2366# VSS.t60 sky130_fd_pr__nfet_01v8 ad=0.084 pd=0.82 as=0.101 ps=0.99 w=0.42 l=0.15
X15 VDD.t686 a_11250_4775# a_11160_5167# VDD.t685 sky130_fd_pr__pfet_01v8_hvt ad=0.0798 pd=0.8 as=0.0945 ps=0.87 w=0.42 l=0.15
X16 VSS.t396 a_5992_4086# x45.Q_N VSS.t395 sky130_fd_pr__nfet_01v8 ad=0.097 pd=0.975 as=0.169 ps=1.82 w=0.65 l=0.15
X17 a_3599_2340# a_3912_2366# a_4018_2366# VSS.t86 sky130_fd_pr__nfet_01v8 ad=0.0864 pd=0.91 as=0.166 ps=1.8 w=0.64 l=0.15
X18 x72.Q_N a_7246_3213# VSS.t487 VSS.t486 sky130_fd_pr__nfet_01v8 ad=0.169 pd=1.82 as=0.097 ps=0.975 w=0.65 l=0.15
X19 VSS.t658 x27.Q_N a_4018_2366# VSS.t657 sky130_fd_pr__nfet_01v8 ad=0.0588 pd=0.7 as=0.12 ps=1.08 w=0.42 l=0.15
X20 a_4854_3213# x77.Y VDD.t138 VDD.t137 sky130_fd_pr__pfet_01v8_hvt ad=0.123 pd=1.17 as=0.0819 ps=0.81 w=0.42 l=0.15
X21 a_7072_3239# a_5844_3239# a_6930_3521# VDD.t223 sky130_fd_pr__pfet_01v8_hvt ad=0.0567 pd=0.69 as=0.174 ps=1.41 w=0.42 l=0.15
X22 a_9442_4086# a_8697_4112# a_9578_4112# VSS.t610 sky130_fd_pr__nfet_01v8 ad=0.0864 pd=0.91 as=0.166 ps=1.8 w=0.64 l=0.15
X23 VSS.t71 x4.X.t33 a_9151_3213# VSS.t70 sky130_fd_pr__nfet_01v8 ad=0.097 pd=0.975 as=0.109 ps=1.36 w=0.42 l=0.15
X24 VDD.t526 a_7246_3213# a_7158_3605# VDD.t525 sky130_fd_pr__pfet_01v8_hvt ad=0.0819 pd=0.81 as=0.0924 ps=0.86 w=0.42 l=0.15
X25 VDD.t715 a_5897_4086# check[0].t0 VDD.t714 sky130_fd_pr__pfet_01v8_hvt ad=0.149 pd=1.33 as=0.26 ps=2.52 w=1 l=0.15
X26 a_11089_4112# x4.X.t34 VDD.t76 VDD.t75 sky130_fd_pr__pfet_01v8_hvt ad=0.166 pd=1.8 as=0.154 ps=1.34 w=0.64 l=0.15
X27 a_4793_2366# a_4925_2550# a_4657_2340# VSS.t76 sky130_fd_pr__nfet_01v8 ad=0.101 pd=0.99 as=0.0864 ps=0.91 w=0.64 l=0.15
X28 VDD.t227 x75.Q a_5844_3239# VDD.t226 sky130_fd_pr__pfet_01v8_hvt ad=0.0864 pd=0.91 as=0.166 ps=1.8 w=0.64 l=0.15
X29 a_6978_4801# a_6466_4775# VSS.t108 VSS.t107 sky130_fd_pr__nfet_01v8 ad=0.0935 pd=0.965 as=0.166 ps=1.8 w=0.64 l=0.15
X30 a_4388_2732# a_3599_2340# VDD.t206 VDD.t205 sky130_fd_pr__pfet_01v8_hvt ad=0.0924 pd=0.86 as=0.0819 ps=0.81 w=0.42 l=0.15
X31 a_2788_5674# check[2].t2 VSS.t398 VSS.t397 sky130_fd_pr__nfet_01v8 ad=0.066 pd=0.745 as=0.107 ps=1 w=0.42 l=0.15
X32 a_10794_3239# a_10628_3239# VDD.t132 VDD.t131 sky130_fd_pr__pfet_01v8_hvt ad=0.166 pd=1.8 as=0.0864 ps=0.91 w=0.64 l=0.15
X33 VSS.t337 D[0].t3 a_8236_3239# VSS.t336 sky130_fd_pr__nfet_01v8 ad=0.0567 pd=0.69 as=0.109 ps=1.36 w=0.42 l=0.15
X34 VDD.t22 x4.X.t35 a_4368_4775# VDD.t21 sky130_fd_pr__pfet_01v8_hvt ad=0.154 pd=1.34 as=0.166 ps=1.8 w=0.64 l=0.15
X35 a_9465_4801# a_8403_4801# a_9370_4801# VSS.t627 sky130_fd_pr__nfet_01v8 ad=0.0711 pd=0.755 as=0.0935 ps=0.965 w=0.36 l=0.15
X36 VSS.t540 a_1511_4112# x4.X.t31 VSS.t539 sky130_fd_pr__nfet_01v8 ad=0.0878 pd=0.92 as=0.0878 ps=0.92 w=0.65 l=0.15
X37 a_12048_4394# a_11089_4112# VDD.t508 VDD.t507 sky130_fd_pr__pfet_01v8_hvt ad=0.113 pd=1.11 as=0.225 ps=1.38 w=0.84 l=0.15
X38 a_9101_3521# a_8683_3605# a_8857_3213# VDD.t452 sky130_fd_pr__pfet_01v8_hvt ad=0.113 pd=1.11 as=0.147 ps=1.23 w=0.84 l=0.15
X39 a_7247_4775# VDD.t280 VDD.t282 VDD.t281 sky130_fd_pr__pfet_01v8_hvt ad=0.123 pd=1.17 as=0.0819 ps=0.81 w=0.42 l=0.15
X40 VDD.t421 a_6846_4086# a_6845_4386# VDD.t420 sky130_fd_pr__pfet_01v8_hvt ad=0.0864 pd=0.91 as=0.166 ps=1.8 w=0.64 l=0.15
X41 VSS.t358 x20.Q_N a_1626_2366# VSS.t357 sky130_fd_pr__nfet_01v8 ad=0.0588 pd=0.7 as=0.12 ps=1.08 w=0.42 l=0.15
X42 D[2].t1 a_12737_3239# VSS.t601 VSS.t600 sky130_fd_pr__nfet_01v8 ad=0.169 pd=1.82 as=0.097 ps=0.975 w=0.65 l=0.15
X43 a_11250_4775# a_11076_5167# a_11390_4801# VSS.t57 sky130_fd_pr__nfet_01v8 ad=0.0864 pd=0.91 as=0.101 ps=0.99 w=0.64 l=0.15
X44 a_4680_3239# a_3452_3239# a_4538_3521# VDD.t532 sky130_fd_pr__pfet_01v8_hvt ad=0.0567 pd=0.69 as=0.174 ps=1.41 w=0.42 l=0.15
X45 a_2479_2648# a_1520_2366# VDD.t128 VDD.t127 sky130_fd_pr__pfet_01v8_hvt ad=0.113 pd=1.11 as=0.225 ps=1.38 w=0.84 l=0.15
X46 VDD.t520 a_4854_3213# a_4766_3605# VDD.t519 sky130_fd_pr__pfet_01v8_hvt ad=0.0819 pd=0.81 as=0.0924 ps=0.86 w=0.42 l=0.15
X47 a_11184_4801# a_10795_4801# a_11076_5167# VSS.t158 sky130_fd_pr__nfet_01v8 ad=0.0671 pd=0.75 as=0.0684 ps=0.74 w=0.36 l=0.15
X48 a_2784_5996# check[2].t3 VDD.t109 VDD.t108 sky130_fd_pr__pfet_01v8_hvt ad=0.105 pd=0.995 as=0.154 ps=1.34 w=0.64 l=0.15
X49 a_4593_4112# a_4453_4386# a_4155_4086# VSS.t37 sky130_fd_pr__nfet_01v8 ad=0.0935 pd=0.965 as=0.0711 ps=0.755 w=0.36 l=0.15
X50 a_1996_2732# a_1207_2340# VDD.t369 VDD.t368 sky130_fd_pr__pfet_01v8_hvt ad=0.0924 pd=0.86 as=0.0819 ps=0.81 w=0.42 l=0.15
X51 a_7181_3239# a_5844_3239# a_7072_3239# VSS.t208 sky130_fd_pr__nfet_01v8 ad=0.066 pd=0.745 as=0.0711 ps=0.755 w=0.36 l=0.15
X52 a_6198_3239# x7.X VSS.t53 VSS.t52 sky130_fd_pr__nfet_01v8 ad=0.066 pd=0.745 as=0.109 ps=1.36 w=0.42 l=0.15
X53 x4.X.t15 a_1511_4112# VDD.t583 VDD.t582 sky130_fd_pr__pfet_01v8_hvt ad=0.135 pd=1.27 as=0.135 ps=1.27 w=1 l=0.15
X54 a_2265_2340# a_1520_2366# a_2401_2366# VSS.t119 sky130_fd_pr__nfet_01v8 ad=0.0864 pd=0.91 as=0.166 ps=1.8 w=0.64 l=0.15
X55 a_12031_4775# a_11857_4801# a_12147_4801# VSS.t292 sky130_fd_pr__nfet_01v8 ad=0.0864 pd=0.91 as=0.12 ps=1.08 w=0.64 l=0.15
X56 VSS.t212 x75.Q a_5844_3239# VSS.t211 sky130_fd_pr__nfet_01v8 ad=0.0567 pd=0.69 as=0.109 ps=1.36 w=0.42 l=0.15
X57 VDD.t279 VDD.t277 a_1976_4775# VDD.t278 sky130_fd_pr__pfet_01v8_hvt ad=0.154 pd=1.34 as=0.166 ps=1.8 w=0.64 l=0.15
X58 VSS.t170 a_7050_4086# a_6985_4112# VSS.t169 sky130_fd_pr__nfet_01v8 ad=0.166 pd=1.8 as=0.0935 ps=0.965 w=0.64 l=0.15
X59 a_1762_2340# a_2060_2640# a_1996_2732# VDD.t534 sky130_fd_pr__pfet_01v8_hvt ad=0.0567 pd=0.69 as=0.0924 ps=0.86 w=0.42 l=0.15
X60 VDD.t375 check[1].t2 a_2969_6040# VDD.t374 sky130_fd_pr__pfet_01v8_hvt ad=0.166 pd=1.8 as=0.138 ps=1.16 w=0.64 l=0.15
X61 a_2883_5674# a_2853_5648# a_2788_5674# VSS.t467 sky130_fd_pr__nfet_01v8 ad=0.072 pd=0.76 as=0.066 ps=0.745 w=0.36 l=0.15
X62 a_7562_4478# a_7050_4086# VDD.t183 VDD.t182 sky130_fd_pr__pfet_01v8_hvt ad=0.0945 pd=0.87 as=0.0798 ps=0.8 w=0.42 l=0.15
X63 a_10775_2340# a_11088_2366# a_11194_2366# VSS.t440 sky130_fd_pr__nfet_01v8 ad=0.0864 pd=0.91 as=0.166 ps=1.8 w=0.64 l=0.15
X64 a_6504_2648# a_6304_2366# VDD.t621 VDD.t620 sky130_fd_pr__pfet_01v8_hvt ad=0.0882 pd=1.05 as=0.218 ps=2.2 w=0.84 l=0.15
X65 a_4214_4801# a_4368_4775# a_4074_4775# VSS.t178 sky130_fd_pr__nfet_01v8 ad=0.166 pd=1.8 as=0.0864 ps=0.91 w=0.64 l=0.15
X66 VSS.t90 x36.Q_N a_11194_2366# VSS.t89 sky130_fd_pr__nfet_01v8 ad=0.0588 pd=0.7 as=0.12 ps=1.08 w=0.42 l=0.15
X67 a_10794_3239# a_10628_3239# VSS.t123 VSS.t122 sky130_fd_pr__nfet_01v8 ad=0.109 pd=1.36 as=0.0567 ps=0.69 w=0.42 l=0.15
X68 a_1511_4112# x4.A VSS.t35 VSS.t34 sky130_fd_pr__nfet_01v8 ad=0.0878 pd=0.92 as=0.0878 ps=0.92 w=0.65 l=0.15
X69 a_4855_4775# VDD.t274 VDD.t276 VDD.t275 sky130_fd_pr__pfet_01v8_hvt ad=0.123 pd=1.17 as=0.0819 ps=0.81 w=0.42 l=0.15
X70 a_7073_4801# a_5845_4801# a_6931_5083# VDD.t231 sky130_fd_pr__pfet_01v8_hvt ad=0.0567 pd=0.69 as=0.174 ps=1.41 w=0.42 l=0.15
X71 VDD.t734 a_4454_4086# a_4453_4386# VDD.t733 sky130_fd_pr__pfet_01v8_hvt ad=0.0864 pd=0.91 as=0.166 ps=1.8 w=0.64 l=0.15
X72 VDD.t650 a_7247_4775# a_7159_5167# VDD.t649 sky130_fd_pr__pfet_01v8_hvt ad=0.0819 pd=0.81 as=0.0924 ps=0.86 w=0.42 l=0.15
X73 x4.A a_897_4112# VDD.t70 VDD.t69 sky130_fd_pr__pfet_01v8_hvt ad=0.135 pd=1.27 as=0.135 ps=1.27 w=1 l=0.15
X74 VDD.t633 a_1338_5674# x5.X.t2 VDD.t632 sky130_fd_pr__pfet_01v8_hvt ad=0.135 pd=1.27 as=0.135 ps=1.27 w=1 l=0.15
X75 x30.Q_N a_7247_4775# VSS.t599 VSS.t598 sky130_fd_pr__nfet_01v8 ad=0.169 pd=1.82 as=0.097 ps=0.975 w=0.65 l=0.15
X76 x4.X.t14 a_1511_4112# VDD.t581 VDD.t580 sky130_fd_pr__pfet_01v8_hvt ad=0.135 pd=1.27 as=0.135 ps=1.27 w=1 l=0.15
X77 a_12345_2732# a_11833_2340# VDD.t316 VDD.t315 sky130_fd_pr__pfet_01v8_hvt ad=0.0945 pd=0.87 as=0.0798 ps=0.8 w=0.42 l=0.15
X78 VSS.t622 check[0].t2 a_5372_4112# VSS.t621 sky130_fd_pr__nfet_01v8 ad=0.109 pd=1.36 as=0.066 ps=0.745 w=0.42 l=0.15
X79 a_8803_4112# a_8939_4086# a_8384_4086# VSS.t386 sky130_fd_pr__nfet_01v8 ad=0.12 pd=1.08 as=0.0864 ps=0.91 w=0.64 l=0.15
X80 VSS.t19 x4.X.t36 a_9152_4775# VSS.t18 sky130_fd_pr__nfet_01v8 ad=0.097 pd=0.975 as=0.109 ps=1.36 w=0.42 l=0.15
X81 a_3806_3239# VSS.t258 VSS.t260 VSS.t259 sky130_fd_pr__nfet_01v8 ad=0.066 pd=0.745 as=0.109 ps=1.36 w=0.42 l=0.15
X82 VDD.t402 x20.Q_N a_1207_2340# VDD.t401 sky130_fd_pr__pfet_01v8_hvt ad=0.0819 pd=0.81 as=0.123 ps=1.17 w=0.42 l=0.15
X83 VSS.t80 check[1].t3 a_2993_5674# VSS.t79 sky130_fd_pr__nfet_01v8 ad=0.109 pd=1.36 as=0.0786 ps=0.805 w=0.42 l=0.15
X84 VSS.t248 VDD.t744 a_8803_4112# VSS.t247 sky130_fd_pr__nfet_01v8 ad=0.0588 pd=0.7 as=0.12 ps=1.08 w=0.42 l=0.15
X85 VSS.t278 a_10776_4086# x39.Q_N VSS.t277 sky130_fd_pr__nfet_01v8 ad=0.097 pd=0.975 as=0.169 ps=1.82 w=0.65 l=0.15
X86 a_6291_3605# a_5844_3239# a_6198_3239# VSS.t207 sky130_fd_pr__nfet_01v8 ad=0.0684 pd=0.74 as=0.066 ps=0.745 w=0.36 l=0.15
X87 x75.Q_N a_4854_3213# VDD.t518 VDD.t517 sky130_fd_pr__pfet_01v8_hvt ad=0.26 pd=2.52 as=0.154 ps=1.34 w=1 l=0.15
X88 VSS.t412 x5.X.t8 a_8237_4801# VSS.t411 sky130_fd_pr__nfet_01v8 ad=0.0567 pd=0.69 as=0.109 ps=1.36 w=0.42 l=0.15
X89 VSS.t133 a_6465_3213# a_6399_3239# VSS.t132 sky130_fd_pr__nfet_01v8 ad=0.084 pd=0.82 as=0.0671 ps=0.75 w=0.42 l=0.15
X90 a_1822_4801# a_1976_4775# a_1682_4775# VSS.t272 sky130_fd_pr__nfet_01v8 ad=0.166 pd=1.8 as=0.0864 ps=0.91 w=0.64 l=0.15
X91 VDD.t20 a_10775_2340# x63.Q_N VDD.t19 sky130_fd_pr__pfet_01v8_hvt ad=0.154 pd=1.34 as=0.26 ps=2.52 w=1 l=0.15
X92 a_9102_5083# a_8684_5167# a_8858_4775# VDD.t57 sky130_fd_pr__pfet_01v8_hvt ad=0.113 pd=1.11 as=0.147 ps=1.23 w=0.84 l=0.15
X93 a_11856_3239# a_10628_3239# a_11714_3521# VDD.t130 sky130_fd_pr__pfet_01v8_hvt ad=0.0567 pd=0.69 as=0.174 ps=1.41 w=0.42 l=0.15
X94 a_4681_4801# a_3453_4801# a_4539_5083# VDD.t642 sky130_fd_pr__pfet_01v8_hvt ad=0.0567 pd=0.69 as=0.174 ps=1.41 w=0.42 l=0.15
X95 VDD.t429 a_4855_4775# a_4767_5167# VDD.t428 sky130_fd_pr__pfet_01v8_hvt ad=0.0819 pd=0.81 as=0.0924 ps=0.86 w=0.42 l=0.15
X96 a_9953_2366# a_9441_2340# VSS.t419 VSS.t418 sky130_fd_pr__nfet_01v8 ad=0.0671 pd=0.75 as=0.084 ps=0.82 w=0.42 l=0.15
X97 check[3].t1 a_12738_4801# VSS.t160 VSS.t159 sky130_fd_pr__nfet_01v8 ad=0.169 pd=1.82 as=0.097 ps=0.975 w=0.65 l=0.15
X98 a_11769_4112# a_11629_4386# a_11331_4086# VSS.t55 sky130_fd_pr__nfet_01v8 ad=0.0935 pd=0.965 as=0.0711 ps=0.755 w=0.36 l=0.15
X99 a_1112_2340# a_1207_2340# VSS.t329 VSS.t328 sky130_fd_pr__nfet_01v8 ad=0.109 pd=1.36 as=0.097 ps=0.975 w=0.42 l=0.15
X100 x7.X a_929_3238# VSS.t504 VSS.t503 sky130_fd_pr__nfet_01v8 ad=0.0878 pd=0.92 as=0.0878 ps=0.92 w=0.65 l=0.15
X101 a_2579_4801# x4.X.t37 VSS.t84 VSS.t83 sky130_fd_pr__nfet_01v8 ad=0.12 pd=1.08 as=0.0588 ps=0.7 w=0.42 l=0.15
X102 a_4155_4086# a_4453_4386# a_4389_4478# VDD.t38 sky130_fd_pr__pfet_01v8_hvt ad=0.0567 pd=0.69 as=0.0924 ps=0.86 w=0.42 l=0.15
X103 a_7480_3521# a_7072_3239# a_7246_3213# VDD.t655 sky130_fd_pr__pfet_01v8_hvt ad=0.0882 pd=1.05 as=0.123 ps=1.17 w=0.84 l=0.15
X104 VSS.t246 VDD.t745 a_9578_4112# VSS.t245 sky130_fd_pr__nfet_01v8 ad=0.084 pd=0.82 as=0.101 ps=0.99 w=0.42 l=0.15
X105 a_5992_4086# a_6305_4112# a_6411_4112# VSS.t350 sky130_fd_pr__nfet_01v8 ad=0.0864 pd=0.91 as=0.166 ps=1.8 w=0.64 l=0.15
X106 VDD.t52 x7.X a_12547_2366# VDD.t51 sky130_fd_pr__pfet_01v8_hvt ad=0.109 pd=1.36 as=0.0662 ps=0.735 w=0.42 l=0.15
X107 a_6199_4801# check[6].t2 VSS.t82 VSS.t81 sky130_fd_pr__nfet_01v8 ad=0.066 pd=0.745 as=0.109 ps=1.36 w=0.42 l=0.15
X108 a_7182_4801# a_5845_4801# a_7073_4801# VSS.t216 sky130_fd_pr__nfet_01v8 ad=0.066 pd=0.745 as=0.0711 ps=0.755 w=0.36 l=0.15
X109 VSS.t244 VDD.t746 a_6411_4112# VSS.t243 sky130_fd_pr__nfet_01v8 ad=0.0588 pd=0.7 as=0.12 ps=1.08 w=0.42 l=0.15
X110 VDD.t85 x4.X.t38 a_6759_3213# VDD.t84 sky130_fd_pr__pfet_01v8_hvt ad=0.154 pd=1.34 as=0.166 ps=1.8 w=0.64 l=0.15
X111 x33.Q_N a_9639_4775# VSS.t558 VSS.t557 sky130_fd_pr__nfet_01v8 ad=0.169 pd=1.82 as=0.097 ps=0.975 w=0.65 l=0.15
X112 VSS.t656 x27.Q_N a_4793_2366# VSS.t655 sky130_fd_pr__nfet_01v8 ad=0.084 pd=0.82 as=0.101 ps=0.99 w=0.42 l=0.15
X113 a_3899_3605# a_3452_3239# a_3806_3239# VSS.t493 sky130_fd_pr__nfet_01v8 ad=0.0684 pd=0.74 as=0.066 ps=0.745 w=0.36 l=0.15
X114 VSS.t414 x5.X.t9 a_5845_4801# VSS.t413 sky130_fd_pr__nfet_01v8 ad=0.0567 pd=0.69 as=0.109 ps=1.36 w=0.42 l=0.15
X115 D[1].t0 a_10345_3239# VDD.t726 VDD.t725 sky130_fd_pr__pfet_01v8_hvt ad=0.26 pd=2.52 as=0.149 ps=1.33 w=1 l=0.15
X116 a_6710_5083# a_6292_5167# a_6466_4775# VDD.t723 sky130_fd_pr__pfet_01v8_hvt ad=0.113 pd=1.11 as=0.147 ps=1.23 w=0.84 l=0.15
X117 a_11195_4112# a_11331_4086# a_10776_4086# VSS.t625 sky130_fd_pr__nfet_01v8 ad=0.12 pd=1.08 as=0.0864 ps=0.91 w=0.64 l=0.15
X118 a_6375_3605# a_5844_3239# a_6291_3605# VDD.t222 sky130_fd_pr__pfet_01v8_hvt ad=0.0945 pd=0.87 as=0.0567 ps=0.69 w=0.42 l=0.15
X119 a_2969_6040# a_2853_5648# a_2883_5674# VDD.t504 sky130_fd_pr__pfet_01v8_hvt ad=0.138 pd=1.16 as=0.0567 ps=0.69 w=0.42 l=0.15
X120 a_8288_2340# a_8383_2340# VDD.t703 VDD.t702 sky130_fd_pr__pfet_01v8_hvt ad=0.166 pd=1.8 as=0.149 ps=1.33 w=0.64 l=0.15
X121 a_10795_4801# a_10629_4801# VSS.t370 VSS.t369 sky130_fd_pr__nfet_01v8 ad=0.109 pd=1.36 as=0.0567 ps=0.69 w=0.42 l=0.15
X122 a_7050_4086# a_6305_4112# a_7186_4112# VSS.t349 sky130_fd_pr__nfet_01v8 ad=0.0864 pd=0.91 as=0.166 ps=1.8 w=0.64 l=0.15
X123 a_11965_3239# a_10628_3239# a_11856_3239# VSS.t121 sky130_fd_pr__nfet_01v8 ad=0.066 pd=0.745 as=0.0711 ps=0.755 w=0.36 l=0.15
X124 a_12102_4296# a_11629_4386# a_12346_4112# VSS.t54 sky130_fd_pr__nfet_01v8 ad=0.0684 pd=0.74 as=0.0671 ps=0.75 w=0.36 l=0.15
X125 VSS.t552 a_2463_4775# a_3170_4801# VSS.t551 sky130_fd_pr__nfet_01v8 ad=0.097 pd=0.975 as=0.109 ps=1.36 w=0.42 l=0.15
X126 a_11970_4112# a_12102_4296# a_11834_4086# VSS.t338 sky130_fd_pr__nfet_01v8 ad=0.101 pd=0.99 as=0.0864 ps=0.91 w=0.64 l=0.15
X127 VDD.t473 a_3505_4086# x48.Q VDD.t472 sky130_fd_pr__pfet_01v8_hvt ad=0.149 pd=1.33 as=0.26 ps=2.52 w=1 l=0.15
X128 a_8590_3239# x7.X VDD.t54 VDD.t53 sky130_fd_pr__pfet_01v8_hvt ad=0.0662 pd=0.735 as=0.109 ps=1.36 w=0.42 l=0.15
X129 VDD.t549 VSS.t692 a_3452_3239# VDD.t548 sky130_fd_pr__pfet_01v8_hvt ad=0.0864 pd=0.91 as=0.166 ps=1.8 w=0.64 l=0.15
X130 x4.X.t13 a_1511_4112# VDD.t579 VDD.t578 sky130_fd_pr__pfet_01v8_hvt ad=0.135 pd=1.27 as=0.135 ps=1.27 w=1 l=0.15
X131 a_4113_4394# a_3913_4112# VDD.t348 VDD.t347 sky130_fd_pr__pfet_01v8_hvt ad=0.0882 pd=1.05 as=0.218 ps=2.2 w=0.84 l=0.15
X132 VSS.t464 a_11834_4086# a_11769_4112# VSS.t463 sky130_fd_pr__nfet_01v8 ad=0.166 pd=1.8 as=0.0935 ps=0.965 w=0.64 l=0.15
X133 a_3807_4801# x27.D VSS.t587 VSS.t586 sky130_fd_pr__nfet_01v8 ad=0.066 pd=0.745 as=0.109 ps=1.36 w=0.42 l=0.15
X134 a_4790_4801# a_3453_4801# a_4681_4801# VSS.t591 sky130_fd_pr__nfet_01v8 ad=0.066 pd=0.745 as=0.0711 ps=0.755 w=0.36 l=0.15
X135 VSS.t356 x20.Q_N a_2401_2366# VSS.t355 sky130_fd_pr__nfet_01v8 ad=0.084 pd=0.82 as=0.101 ps=0.99 w=0.42 l=0.15
X136 VDD.t543 a_929_3238# x7.X VDD.t542 sky130_fd_pr__pfet_01v8_hvt ad=0.26 pd=2.52 as=0.135 ps=1.27 w=1 l=0.15
X137 a_1511_4112# x4.A VSS.t33 VSS.t32 sky130_fd_pr__nfet_01v8 ad=0.0878 pd=0.92 as=0.0878 ps=0.92 w=0.65 l=0.15
X138 a_11564_2366# a_10775_2340# VSS.t17 VSS.t16 sky130_fd_pr__nfet_01v8 ad=0.066 pd=0.745 as=0.0588 ps=0.7 w=0.42 l=0.15
X139 a_7763_2366# a_6844_2640# a_7317_2550# VDD.t442 sky130_fd_pr__pfet_01v8_hvt ad=0.0662 pd=0.735 as=0.0567 ps=0.69 w=0.42 l=0.15
X140 a_11714_3521# a_11249_3213# VDD.t80 VDD.t79 sky130_fd_pr__pfet_01v8_hvt ad=0.174 pd=1.41 as=0.225 ps=1.38 w=0.84 l=0.15
X141 a_11857_4801# a_10629_4801# a_11715_5083# VDD.t414 sky130_fd_pr__pfet_01v8_hvt ad=0.0567 pd=0.69 as=0.174 ps=1.41 w=0.42 l=0.15
X142 x4.A a_897_4112# VDD.t68 VDD.t67 sky130_fd_pr__pfet_01v8_hvt ad=0.135 pd=1.27 as=0.135 ps=1.27 w=1 l=0.15
X143 a_6292_5167# a_5845_4801# a_6199_4801# VSS.t215 sky130_fd_pr__nfet_01v8 ad=0.0684 pd=0.74 as=0.066 ps=0.745 w=0.36 l=0.15
X144 VDD.t367 a_1207_2340# x51.Q_N VDD.t366 sky130_fd_pr__pfet_01v8_hvt ad=0.154 pd=1.34 as=0.26 ps=2.52 w=1 l=0.15
X145 a_3983_3605# a_3452_3239# a_3899_3605# VDD.t531 sky130_fd_pr__pfet_01v8_hvt ad=0.0945 pd=0.87 as=0.0567 ps=0.69 w=0.42 l=0.15
X146 a_2389_5648# a_3258_5648# a_2883_5674# VSS.t269 sky130_fd_pr__nfet_01v8 ad=0.0578 pd=0.695 as=0.109 ps=1.36 w=0.42 l=0.15
X147 a_5896_2340# a_5991_2340# VDD.t493 VDD.t492 sky130_fd_pr__pfet_01v8_hvt ad=0.166 pd=1.8 as=0.149 ps=1.33 w=0.64 l=0.15
X148 VSS.t106 a_6466_4775# a_6400_4801# VSS.t105 sky130_fd_pr__nfet_01v8 ad=0.084 pd=0.82 as=0.0671 ps=0.75 w=0.42 l=0.15
X149 a_4658_4086# a_3913_4112# a_4794_4112# VSS.t308 sky130_fd_pr__nfet_01v8 ad=0.0864 pd=0.91 as=0.166 ps=1.8 w=0.64 l=0.15
X150 VDD.t595 a_2463_4775# a_3170_4801# VDD.t594 sky130_fd_pr__pfet_01v8_hvt ad=0.149 pd=1.33 as=0.166 ps=1.8 w=0.64 l=0.15
X151 a_7481_5083# a_7073_4801# a_7247_4775# VDD.t196 sky130_fd_pr__pfet_01v8_hvt ad=0.0882 pd=1.05 as=0.123 ps=1.17 w=0.84 l=0.15
X152 a_9237_2340# D[3].t2 VDD.t123 VDD.t122 sky130_fd_pr__pfet_01v8_hvt ad=0.166 pd=1.8 as=0.0864 ps=0.91 w=0.64 l=0.15
X153 VDD.t214 reset.t0 a_621_4112# VDD.t213 sky130_fd_pr__pfet_01v8_hvt ad=0.115 pd=1.08 as=0.205 ps=2.1 w=0.79 l=0.15
X154 a_9173_4112# a_8384_4086# VSS.t475 VSS.t474 sky130_fd_pr__nfet_01v8 ad=0.066 pd=0.745 as=0.0588 ps=0.7 w=0.42 l=0.15
X155 VDD.t50 x7.X a_2979_2366# VDD.t49 sky130_fd_pr__pfet_01v8_hvt ad=0.109 pd=1.36 as=0.0662 ps=0.735 w=0.42 l=0.15
X156 VDD.t314 a_11833_2340# a_11766_2732# VDD.t313 sky130_fd_pr__pfet_01v8_hvt ad=0.225 pd=1.38 as=0.174 ps=1.41 w=0.84 l=0.15
X157 VSS.t257 VSS.t255 a_3452_3239# VSS.t256 sky130_fd_pr__nfet_01v8 ad=0.0567 pd=0.69 as=0.109 ps=1.36 w=0.42 l=0.15
X158 VDD.t360 a_9442_4086# a_9375_4478# VDD.t359 sky130_fd_pr__pfet_01v8_hvt ad=0.225 pd=1.38 as=0.174 ps=1.41 w=0.84 l=0.15
X159 VDD.t62 x30.Q_N a_7049_2340# VDD.t61 sky130_fd_pr__pfet_01v8_hvt ad=0.0798 pd=0.8 as=0.147 ps=1.23 w=0.42 l=0.15
X160 a_4317_3521# a_3899_3605# a_4073_3213# VDD.t124 sky130_fd_pr__pfet_01v8_hvt ad=0.113 pd=1.11 as=0.147 ps=1.23 w=0.84 l=0.15
X161 a_6376_5167# a_5845_4801# a_6292_5167# VDD.t230 sky130_fd_pr__pfet_01v8_hvt ad=0.0945 pd=0.87 as=0.0567 ps=0.69 w=0.42 l=0.15
X162 a_3900_5167# a_3453_4801# a_3807_4801# VSS.t590 sky130_fd_pr__nfet_01v8 ad=0.0684 pd=0.74 as=0.066 ps=0.745 w=0.36 l=0.15
X163 VSS.t650 a_8383_2340# x60.Q_N VSS.t649 sky130_fd_pr__nfet_01v8 ad=0.097 pd=0.975 as=0.169 ps=1.82 w=0.65 l=0.15
X164 a_11249_3213# x39.Q_N VDD.t497 VDD.t496 sky130_fd_pr__pfet_01v8_hvt ad=0.147 pd=1.23 as=0.0798 ps=0.8 w=0.42 l=0.15
X165 x7.X a_929_3238# VSS.t502 VSS.t501 sky130_fd_pr__nfet_01v8 ad=0.0878 pd=0.92 as=0.0878 ps=0.92 w=0.65 l=0.15
X166 a_1227_4801# a_1061_4801# VSS.t144 VSS.t143 sky130_fd_pr__nfet_01v8 ad=0.109 pd=1.36 as=0.0567 ps=0.69 w=0.42 l=0.15
X167 a_4074_4775# VDD.t271 VDD.t273 VDD.t272 sky130_fd_pr__pfet_01v8_hvt ad=0.147 pd=1.23 as=0.0798 ps=0.8 w=0.42 l=0.15
X168 a_8997_3239# x42.Q_N VSS.t197 VSS.t196 sky130_fd_pr__nfet_01v8 ad=0.101 pd=0.99 as=0.084 ps=0.82 w=0.42 l=0.15
X169 a_8591_4801# check[5].t3 VDD.t148 VDD.t147 sky130_fd_pr__pfet_01v8_hvt ad=0.0662 pd=0.735 as=0.109 ps=1.36 w=0.42 l=0.15
X170 a_11289_4394# a_11089_4112# VDD.t506 VDD.t505 sky130_fd_pr__pfet_01v8_hvt ad=0.0882 pd=1.05 as=0.218 ps=2.2 w=0.84 l=0.15
X171 a_1511_4112# x4.A VDD.t36 VDD.t35 sky130_fd_pr__pfet_01v8_hvt ad=0.135 pd=1.27 as=0.26 ps=2.52 w=1 l=0.15
X172 x4.X.t30 a_1511_4112# VSS.t538 VSS.t537 sky130_fd_pr__nfet_01v8 ad=0.0878 pd=0.92 as=0.0878 ps=0.92 w=0.65 l=0.15
X173 x75.Q a_5561_3239# VDD.t363 VDD.t362 sky130_fd_pr__pfet_01v8_hvt ad=0.26 pd=2.52 as=0.149 ps=1.33 w=1 l=0.15
X174 a_11966_4801# a_10629_4801# a_11857_4801# VSS.t368 sky130_fd_pr__nfet_01v8 ad=0.066 pd=0.745 as=0.0711 ps=0.755 w=0.36 l=0.15
X175 a_9376_2366# a_9236_2640# a_8938_2340# VSS.t2 sky130_fd_pr__nfet_01v8 ad=0.0935 pd=0.965 as=0.0711 ps=0.755 w=0.36 l=0.15
X176 eob.t7 a_2389_5648# VSS.t100 VSS.t99 sky130_fd_pr__nfet_01v8 ad=0.0878 pd=0.92 as=0.114 ps=1 w=0.65 l=0.15
X177 a_6781_4112# a_5992_4086# VSS.t394 VSS.t393 sky130_fd_pr__nfet_01v8 ad=0.066 pd=0.745 as=0.0588 ps=0.7 w=0.42 l=0.15
X178 x77.Y eob.t8 VDD.t342 VDD.t341 sky130_fd_pr__pfet_01v8_hvt ad=0.26 pd=2.52 as=0.26 ps=2.52 w=1 l=0.15
X179 x5.X.t7 a_1338_5674# VSS.t584 VSS.t583 sky130_fd_pr__nfet_01v8 ad=0.0878 pd=0.92 as=0.0878 ps=0.92 w=0.65 l=0.15
X180 a_9237_2340# D[3].t3 VSS.t116 VSS.t115 sky130_fd_pr__nfet_01v8 ad=0.109 pd=1.36 as=0.0567 ps=0.69 w=0.42 l=0.15
X181 a_11715_5083# a_11250_4775# VDD.t684 VDD.t683 sky130_fd_pr__pfet_01v8_hvt ad=0.174 pd=1.41 as=0.225 ps=1.38 w=0.84 l=0.15
X182 x27.Q_N a_4855_4775# VDD.t427 VDD.t426 sky130_fd_pr__pfet_01v8_hvt ad=0.26 pd=2.52 as=0.154 ps=1.34 w=1 l=0.15
X183 a_3984_5167# a_3453_4801# a_3900_5167# VDD.t641 sky130_fd_pr__pfet_01v8_hvt ad=0.0945 pd=0.87 as=0.0567 ps=0.69 w=0.42 l=0.15
X184 a_8791_3239# a_8402_3239# a_8683_3605# VSS.t210 sky130_fd_pr__nfet_01v8 ad=0.0671 pd=0.75 as=0.0684 ps=0.74 w=0.36 l=0.15
X185 a_11089_4112# x4.X.t39 VSS.t340 VSS.t339 sky130_fd_pr__nfet_01v8 ad=0.109 pd=1.36 as=0.097 ps=0.975 w=0.42 l=0.15
X186 a_5991_2340# a_6546_2340# a_6504_2648# VDD.t695 sky130_fd_pr__pfet_01v8_hvt ad=0.123 pd=1.17 as=0.0882 ps=1.05 w=0.84 l=0.15
X187 a_11075_3605# a_10794_3239# a_10982_3239# VDD.t668 sky130_fd_pr__pfet_01v8_hvt ad=0.0567 pd=0.69 as=0.0662 ps=0.735 w=0.42 l=0.15
X188 VDD.t675 check[0].t3 a_5372_4112# VDD.t674 sky130_fd_pr__pfet_01v8_hvt ad=0.109 pd=1.36 as=0.0662 ps=0.735 w=0.42 l=0.15
X189 VDD.t335 a_11629_2340# a_11628_2640# VDD.t334 sky130_fd_pr__pfet_01v8_hvt ad=0.0864 pd=0.91 as=0.166 ps=1.8 w=0.64 l=0.15
X190 a_9638_3213# a_9464_3239# a_9754_3239# VSS.t661 sky130_fd_pr__nfet_01v8 ad=0.0864 pd=0.91 as=0.12 ps=1.08 w=0.64 l=0.15
X191 a_5088_3521# a_4680_3239# a_4854_3213# VDD.t325 sky130_fd_pr__pfet_01v8_hvt ad=0.0882 pd=1.05 as=0.123 ps=1.17 w=0.84 l=0.15
X192 x4.X.t12 a_1511_4112# VDD.t577 VDD.t576 sky130_fd_pr__pfet_01v8_hvt ad=0.135 pd=1.27 as=0.135 ps=1.27 w=1 l=0.15
X193 VDD.t270 VDD.t268 a_9442_4086# VDD.t269 sky130_fd_pr__pfet_01v8_hvt ad=0.0798 pd=0.8 as=0.147 ps=1.23 w=0.42 l=0.15
X194 a_6984_2366# a_6844_2640# a_6546_2340# VSS.t400 sky130_fd_pr__nfet_01v8 ad=0.0935 pd=0.965 as=0.0711 ps=0.755 w=0.36 l=0.15
X195 VDD.t386 x4.X.t40 a_4367_3213# VDD.t385 sky130_fd_pr__pfet_01v8_hvt ad=0.154 pd=1.34 as=0.166 ps=1.8 w=0.64 l=0.15
X196 VDD.t541 a_929_3238# x7.X VDD.t540 sky130_fd_pr__pfet_01v8_hvt ad=0.135 pd=1.27 as=0.135 ps=1.27 w=1 l=0.15
X197 a_7318_4296# a_6846_4086# a_7562_4478# VDD.t419 sky130_fd_pr__pfet_01v8_hvt ad=0.0567 pd=0.69 as=0.0945 ps=0.87 w=0.42 l=0.15
X198 VSS.t417 a_9441_2340# a_9376_2366# VSS.t416 sky130_fd_pr__nfet_01v8 ad=0.166 pd=1.8 as=0.0935 ps=0.965 w=0.64 l=0.15
X199 a_4318_5083# a_3900_5167# a_4074_4775# VDD.t146 sky130_fd_pr__pfet_01v8_hvt ad=0.113 pd=1.11 as=0.147 ps=1.23 w=0.84 l=0.15
X200 check[4].t0 a_10346_4801# VDD.t444 VDD.t443 sky130_fd_pr__pfet_01v8_hvt ad=0.26 pd=2.52 as=0.149 ps=1.33 w=1 l=0.15
X201 VDD.t575 a_1511_4112# x4.X.t11 VDD.t574 sky130_fd_pr__pfet_01v8_hvt ad=0.135 pd=1.27 as=0.135 ps=1.27 w=1 l=0.15
X202 a_12548_4112# a_11629_4386# a_12102_4296# VDD.t56 sky130_fd_pr__pfet_01v8_hvt ad=0.0662 pd=0.735 as=0.0567 ps=0.69 w=0.42 l=0.15
X203 a_12101_2550# a_11629_2340# a_12345_2732# VDD.t333 sky130_fd_pr__pfet_01v8_hvt ad=0.0567 pd=0.69 as=0.0945 ps=0.87 w=0.42 l=0.15
X204 VSS.t352 x5.X.t10 a_3453_4801# VSS.t351 sky130_fd_pr__nfet_01v8 ad=0.0567 pd=0.69 as=0.109 ps=1.36 w=0.42 l=0.15
X205 a_11250_4775# VDD.t265 VDD.t267 VDD.t266 sky130_fd_pr__pfet_01v8_hvt ad=0.147 pd=1.23 as=0.0798 ps=0.8 w=0.42 l=0.15
X206 a_4453_2340# D[5].t2 VDD.t337 VDD.t336 sky130_fd_pr__pfet_01v8_hvt ad=0.166 pd=1.8 as=0.0864 ps=0.91 w=0.64 l=0.15
X207 a_3373_5674# a_3258_5648# a_2389_5648# VDD.t297 sky130_fd_pr__pfet_01v8_hvt ad=0.14 pd=1.6 as=0.0729 ps=0.81 w=0.54 l=0.15
X208 VSS.t172 x4.X.t41 a_6759_3213# VSS.t171 sky130_fd_pr__nfet_01v8 ad=0.097 pd=0.975 as=0.109 ps=1.36 w=0.42 l=0.15
X209 VSS.t405 reset.t1 a_621_4112# VSS.t404 sky130_fd_pr__nfet_01v8 ad=0.0754 pd=0.81 as=0.135 ps=1.56 w=0.52 l=0.15
X210 a_1762_2340# a_2061_2340# a_1996_2366# VSS.t11 sky130_fd_pr__nfet_01v8 ad=0.0711 pd=0.755 as=0.066 ps=0.745 w=0.36 l=0.15
X211 a_9550_3605# a_8402_3239# a_9464_3239# VDD.t225 sky130_fd_pr__pfet_01v8_hvt ad=0.0924 pd=0.86 as=0.0567 ps=0.69 w=0.42 l=0.15
X212 a_8998_4801# VDD.t747 VSS.t242 VSS.t241 sky130_fd_pr__nfet_01v8 ad=0.101 pd=0.99 as=0.084 ps=0.82 w=0.42 l=0.15
X213 x4.X.t29 a_1511_4112# VSS.t536 VSS.t535 sky130_fd_pr__nfet_01v8 ad=0.0878 pd=0.92 as=0.0878 ps=0.92 w=0.65 l=0.15
X214 a_7049_2340# a_7317_2550# a_7263_2648# VDD.t415 sky130_fd_pr__pfet_01v8_hvt ad=0.147 pd=1.23 as=0.113 ps=1.11 w=0.84 l=0.15
X215 a_6198_3239# x7.X VDD.t48 VDD.t47 sky130_fd_pr__pfet_01v8_hvt ad=0.0662 pd=0.735 as=0.109 ps=1.36 w=0.42 l=0.15
X216 VSS.t51 x7.X a_7763_2366# VSS.t50 sky130_fd_pr__nfet_01v8 ad=0.109 pd=1.36 as=0.066 ps=0.745 w=0.42 l=0.15
X217 a_2398_4801# a_1061_4801# a_2289_4801# VSS.t142 sky130_fd_pr__nfet_01v8 ad=0.066 pd=0.745 as=0.0711 ps=0.755 w=0.36 l=0.15
X218 VSS.t303 a_11629_2340# a_11628_2640# VSS.t302 sky130_fd_pr__nfet_01v8 ad=0.0567 pd=0.69 as=0.109 ps=1.36 w=0.42 l=0.15
X219 VDD.t707 a_6759_3213# a_7480_3521# VDD.t706 sky130_fd_pr__pfet_01v8_hvt ad=0.218 pd=2.2 as=0.0882 ps=1.05 w=0.84 l=0.15
X220 a_3877_5674# a_2853_5648# a_3373_5674# VSS.t466 sky130_fd_pr__nfet_01v8 ad=0.066 pd=0.745 as=0.072 ps=0.76 w=0.36 l=0.15
X221 a_9656_4394# a_8697_4112# VDD.t663 VDD.t662 sky130_fd_pr__pfet_01v8_hvt ad=0.113 pd=1.11 as=0.225 ps=1.38 w=0.84 l=0.15
X222 a_7185_2366# a_7317_2550# a_7049_2340# VSS.t371 sky130_fd_pr__nfet_01v8 ad=0.101 pd=0.99 as=0.0864 ps=0.91 w=0.64 l=0.15
X223 a_10155_2366# a_9237_2340# a_9709_2550# VSS.t112 sky130_fd_pr__nfet_01v8 ad=0.066 pd=0.745 as=0.0684 ps=0.74 w=0.36 l=0.15
X224 a_1926_5083# a_1508_5167# a_1682_4775# VDD.t215 sky130_fd_pr__pfet_01v8_hvt ad=0.113 pd=1.11 as=0.147 ps=1.23 w=0.84 l=0.15
X225 a_9370_4801# a_8858_4775# VSS.t687 VSS.t686 sky130_fd_pr__nfet_01v8 ad=0.0935 pd=0.965 as=0.166 ps=1.8 w=0.64 l=0.15
X226 VDD.t264 VDD.t262 a_11834_4086# VDD.t263 sky130_fd_pr__pfet_01v8_hvt ad=0.0798 pd=0.8 as=0.147 ps=1.23 w=0.42 l=0.15
X227 a_3504_2340# a_3599_2340# VDD.t204 VDD.t203 sky130_fd_pr__pfet_01v8_hvt ad=0.166 pd=1.8 as=0.149 ps=1.33 w=0.64 l=0.15
X228 a_11076_5167# a_10795_4801# a_10983_4801# VDD.t169 sky130_fd_pr__pfet_01v8_hvt ad=0.0567 pd=0.69 as=0.0662 ps=0.735 w=0.42 l=0.15
X229 a_8792_4801# a_8403_4801# a_8684_5167# VSS.t626 sky130_fd_pr__nfet_01v8 ad=0.0671 pd=0.75 as=0.0684 ps=0.74 w=0.36 l=0.15
X230 a_5089_5083# a_4681_4801# a_4855_4775# VDD.t298 sky130_fd_pr__pfet_01v8_hvt ad=0.0882 pd=1.05 as=0.123 ps=1.17 w=0.84 l=0.15
X231 x4.X.t28 a_1511_4112# VSS.t534 VSS.t533 sky130_fd_pr__nfet_01v8 ad=0.0878 pd=0.92 as=0.0878 ps=0.92 w=0.65 l=0.15
X232 VDD.t14 a_2061_2340# a_2060_2640# VDD.t13 sky130_fd_pr__pfet_01v8_hvt ad=0.0864 pd=0.91 as=0.166 ps=1.8 w=0.64 l=0.15
X233 a_3671_5674# x48.Q VSS.t508 VSS.t507 sky130_fd_pr__nfet_01v8 ad=0.0671 pd=0.75 as=0.0819 ps=0.81 w=0.42 l=0.15
X234 a_4453_2340# D[5].t3 VSS.t305 VSS.t304 sky130_fd_pr__nfet_01v8 ad=0.109 pd=1.36 as=0.0567 ps=0.69 w=0.42 l=0.15
X235 a_4657_2340# a_4925_2550# a_4871_2648# VDD.t81 sky130_fd_pr__pfet_01v8_hvt ad=0.147 pd=1.23 as=0.113 ps=1.11 w=0.84 l=0.15
X236 a_3806_3239# VSS.t693 VDD.t603 VDD.t602 sky130_fd_pr__pfet_01v8_hvt ad=0.0662 pd=0.735 as=0.109 ps=1.36 w=0.42 l=0.15
X237 x5.X.t6 a_1338_5674# VSS.t582 VSS.t581 sky130_fd_pr__nfet_01v8 ad=0.0878 pd=0.92 as=0.0878 ps=0.92 w=0.65 l=0.15
X238 a_9639_4775# a_9465_4801# a_9755_4801# VSS.t430 sky130_fd_pr__nfet_01v8 ad=0.0864 pd=0.91 as=0.12 ps=1.08 w=0.64 l=0.15
X239 VDD.t487 a_12030_3213# a_12737_3239# VDD.t486 sky130_fd_pr__pfet_01v8_hvt ad=0.149 pd=1.33 as=0.166 ps=1.8 w=0.64 l=0.15
X240 a_4970_3239# a_4367_3213# a_4854_3213# VSS.t265 sky130_fd_pr__nfet_01v8 ad=0.166 pd=1.8 as=0.0864 ps=0.91 w=0.64 l=0.15
X241 a_8857_3213# a_8683_3605# a_8997_3239# VSS.t415 sky130_fd_pr__nfet_01v8 ad=0.0864 pd=0.91 as=0.101 ps=0.99 w=0.64 l=0.15
X242 a_3600_4086# a_4155_4086# a_4113_4394# VDD.t445 sky130_fd_pr__pfet_01v8_hvt ad=0.123 pd=1.17 as=0.0882 ps=1.05 w=0.84 l=0.15