* NGSPICE file created from hgu_clk_async_flat.ext - technology: sky130A

.subckt hgu_clk_async_flat sample_clk eob ready delay_offset async_clk_sar async_resetb_delay_ctrl_code[2]
+ async_resetb_delay_ctrl_code[1] async_setb_delay_ctrl_code[3] async_setb_delay_ctrl_code[1]
+ async_setb_delay_ctrl_code[2] async_resetb_delay_ctrl_code[0] async_resetb_delay_ctrl_code[3]
+ async_setb_delay_ctrl_code[0] vss vdd
X0 x4.x5[7].floating.t7 x4.x10.Y.t2 x4.x9.output_stack vdd.t20 sky130_fd_pr__pfet_01v8 ad=0.122 pd=1.42 as=0.101 ps=0.9 w=0.42 l=0.15
X1 x2.x9.output_stack async_setb_delay_ctrl_code[2].t0 x2.x4[3].floating vss.t10 sky130_fd_pr__nfet_01v8 ad=0.0966 pd=0.88 as=0.122 ps=1.42 w=0.42 l=0.15
X2 x4.x3[1].floating async_resetb_delay_ctrl_code[1].t0 x4.x9.output_stack vss.t8 sky130_fd_pr__nfet_01v8 ad=0.122 pd=1.42 as=0.0966 ps=0.88 w=0.42 l=0.15
X3 x10.Y x10.A vss.t7 vss.t6 sky130_fd_pr__nfet_01v8 ad=0.169 pd=1.82 as=0.169 ps=1.82 w=0.65 l=0.15
X4 a_1373_1841# eob.t0 vdd.t26 vdd.t25 sky130_fd_pr__pfet_01v8_hvt ad=0.118 pd=1.4 as=0.0693 ps=0.75 w=0.42 l=0.15
X5 a_2200_1841# sample_clk.t0 vdd.t94 vdd.t93 sky130_fd_pr__pfet_01v8_hvt ad=0.118 pd=1.4 as=0.0693 ps=0.75 w=0.42 l=0.15
X6 x4.x9.output_stack x4.x10.Y.t3 x4.x5[7].floating.t6 vdd.t20 sky130_fd_pr__pfet_01v8 ad=0.101 pd=0.9 as=0.122 ps=1.42 w=0.42 l=0.15
X7 x9.Y x9.A vss.t72 vss.t6 sky130_fd_pr__nfet_01v8 ad=0.169 pd=1.82 as=0.169 ps=1.82 w=0.65 l=0.15
X8 a_n6207_n1487# ready.t0 a_n6295_n1487# vss.t9 sky130_fd_pr__nfet_01v8 ad=0.0441 pd=0.63 as=0.122 ps=1.42 w=0.42 l=0.15
X9 a_n6207_n797# ready.t1 a_n6295_n935# vss.t9 sky130_fd_pr__nfet_01v8 ad=0.0441 pd=0.63 as=0.122 ps=1.42 w=0.42 l=0.15
X10 a_n6182_1940# async_clk_sar.t2 a_n6270_2078# vdd.t49 sky130_fd_pr__pfet_01v8_hvt ad=0.122 pd=1.42 as=0.122 ps=1.42 w=0.42 l=0.15
X11 vss.t1 async_clk_sar.t3 a_n6207_n277# vss.t0 sky130_fd_pr__nfet_01v8 ad=0.122 pd=1.42 as=0.0441 ps=0.63 w=0.42 l=0.15
X12 vss.t34 a_1771_1775# x3.X vss.t33 sky130_fd_pr__nfet_01v8 ad=0.113 pd=1.04 as=0.169 ps=1.82 w=0.65 l=0.15
X13 a_n397_1077# x4.x9.output_stack vdd.t77 vdd.t76 sky130_fd_pr__pfet_01v8_hvt ad=0.122 pd=1.42 as=0.122 ps=1.42 w=0.42 l=0.15
X14 x4.x9.output_stack async_resetb_delay_ctrl_code[2].t0 x4.x4[3].floating vss.t30 sky130_fd_pr__nfet_01v8 ad=0.0966 pd=0.88 as=0.122 ps=1.42 w=0.42 l=0.15
X15 a_n6135_413# async_clk_sar.t4 a_n6207_413# vss.t0 sky130_fd_pr__nfet_01v8 ad=0.122 pd=1.42 as=0.0441 ps=0.63 w=0.42 l=0.15
X16 vdd.t19 x9.Y a_1363_798# vdd.t18 sky130_fd_pr__pfet_01v8_hvt ad=0.0798 pd=0.8 as=0.147 ps=1.23 w=0.42 l=0.15
X17 a_1307_1909# x3.X a_944_1775# vss.t69 sky130_fd_pr__nfet_01v8 ad=0.0693 pd=0.75 as=0.0997 ps=0.895 w=0.42 l=0.15
X18 a_818_1106# a_618_824# vdd.t37 vdd.t36 sky130_fd_pr__pfet_01v8_hvt ad=0.0882 pd=1.05 as=0.218 ps=2.2 w=0.84 l=0.15
X19 a_618_824# x10.Y vss.t40 vss.t39 sky130_fd_pr__nfet_01v8 ad=0.109 pd=1.36 as=0.097 ps=0.975 w=0.42 l=0.15
X20 vss.t56 vdd.t96 a_2077_824# vss.t55 sky130_fd_pr__nfet_01v8 ad=0.109 pd=1.36 as=0.066 ps=0.745 w=0.42 l=0.15
X21 a_n397_736# x4.x9.output_stack x10.A vss.t51 sky130_fd_pr__nfet_01v8 ad=0.0651 pd=0.73 as=0.122 ps=1.42 w=0.42 l=0.15
X22 a_2134_1909# x3.A0 a_1771_1775# vss.t29 sky130_fd_pr__nfet_01v8 ad=0.0693 pd=0.75 as=0.0997 ps=0.895 w=0.42 l=0.15
X23 a_1159_798# sample_clk.t1 vdd.t81 vdd.t80 sky130_fd_pr__pfet_01v8_hvt ad=0.166 pd=1.8 as=0.0864 ps=0.91 w=0.64 l=0.15
X24 a_1403_1582# vss.t86 a_944_1775# vdd.t46 sky130_fd_pr__pfet_01v8_hvt ad=0.0441 pd=0.63 as=0.193 ps=1.34 w=0.42 l=0.15
X25 a_n397_n2289# x9.A vss.t71 vdd.t73 sky130_fd_pr__pfet_01v8_hvt ad=0.13 pd=1.46 as=0.0693 ps=0.75 w=0.42 l=0.15
X26 a_2230_1582# vss.t87 a_1771_1775# vdd.t47 sky130_fd_pr__pfet_01v8_hvt ad=0.0441 pd=0.63 as=0.193 ps=1.34 w=0.42 l=0.15
X27 a_1094_1190# a_305_798# vdd.t9 vdd.t8 sky130_fd_pr__pfet_01v8_hvt ad=0.0924 pd=0.86 as=0.0819 ps=0.81 w=0.42 l=0.15
X28 a_1296_1190# a_1159_798# a_860_798# vdd.t65 sky130_fd_pr__pfet_01v8_hvt ad=0.174 pd=1.41 as=0.0567 ps=0.69 w=0.42 l=0.15
X29 vss.t27 x9.Y a_724_824# vss.t26 sky130_fd_pr__nfet_01v8 ad=0.0588 pd=0.7 as=0.12 ps=1.08 w=0.42 l=0.15
X30 vdd.t89 delay_offset.t0 x4.x6.SW vdd.t88 sky130_fd_pr__pfet_01v8_hvt ad=0.26 pd=2.52 as=0.26 ps=2.52 w=1 l=0.15
X31 a_618_824# x10.Y vdd.t30 vdd.t29 sky130_fd_pr__pfet_01v8_hvt ad=0.166 pd=1.8 as=0.154 ps=1.34 w=0.64 l=0.15
X32 a_n6207_n1# async_clk_sar.t5 a_n6295_n1# vss.t9 sky130_fd_pr__nfet_01v8 ad=0.0441 pd=0.63 as=0.122 ps=1.42 w=0.42 l=0.15
X33 a_1363_798# a_1631_1008# a_1577_1106# vdd.t87 sky130_fd_pr__pfet_01v8_hvt ad=0.147 pd=1.23 as=0.113 ps=1.11 w=0.84 l=0.15
X34 x2.x4[3].floating async_setb_delay_ctrl_code[2].t1 x2.x9.output_stack vss.t32 sky130_fd_pr__nfet_01v8 ad=0.122 pd=1.42 as=0.0966 ps=0.88 w=0.42 l=0.15
X35 a_n6207_689# async_clk_sar.t6 a_n6295_551# vss.t9 sky130_fd_pr__nfet_01v8 ad=0.0441 pd=0.63 as=0.122 ps=1.42 w=0.42 l=0.15
X36 vss.t19 a_944_1775# async_clk_sar.t0 vss.t18 sky130_fd_pr__nfet_01v8 ad=0.113 pd=1.04 as=0.169 ps=1.82 w=0.65 l=0.15
X37 a_n397_n1948# x2.x9.output_stack x9.A vss.t51 sky130_fd_pr__nfet_01v8 ad=0.0651 pd=0.73 as=0.122 ps=1.42 w=0.42 l=0.15
X38 a_n6182_1664# async_clk_sar.t7 a_n6270_1526# vdd.t28 sky130_fd_pr__pfet_01v8_hvt ad=0.122 pd=1.42 as=0.122 ps=1.42 w=0.42 l=0.15
X39 a_210_798# a_305_798# vss.t17 vss.t16 sky130_fd_pr__nfet_01v8 ad=0.109 pd=1.36 as=0.097 ps=0.975 w=0.42 l=0.15
X40 a_n6182_n3152# ready.t2 a_n6270_n3014# vdd.t22 sky130_fd_pr__pfet_01v8_hvt ad=0.122 pd=1.42 as=0.122 ps=1.42 w=0.42 l=0.15
X41 a_944_1775# vss.t37 a_1086_1909# vss.t38 sky130_fd_pr__nfet_01v8 ad=0.0997 pd=0.895 as=0.0693 ps=0.75 w=0.42 l=0.15
X42 a_n397_1077# x10.A vss.t5 vdd.t0 sky130_fd_pr__pfet_01v8_hvt ad=0.13 pd=1.46 as=0.0693 ps=0.75 w=0.42 l=0.15
X43 a_n6135_n1073# ready.t3 a_n6207_n1073# vss.t0 sky130_fd_pr__nfet_01v8 ad=0.122 pd=1.42 as=0.0441 ps=0.63 w=0.42 l=0.15
X44 vdd.t17 x9.Y a_305_798# vdd.t16 sky130_fd_pr__pfet_01v8_hvt ad=0.0819 pd=0.81 as=0.123 ps=1.17 w=0.42 l=0.15
X45 x2.x4[3].floating async_setb_delay_ctrl_code[2].t2 x2.x9.output_stack vss.t31 sky130_fd_pr__nfet_01v8 ad=0.122 pd=1.42 as=0.0966 ps=0.88 w=0.42 l=0.15
X46 a_n6207_n277# async_clk_sar.t8 a_n6295_n277# vss.t9 sky130_fd_pr__nfet_01v8 ad=0.0441 pd=0.63 as=0.122 ps=1.42 w=0.42 l=0.15
X47 vss.t15 a_305_798# x27.Q_N vss.t14 sky130_fd_pr__nfet_01v8 ad=0.097 pd=0.975 as=0.169 ps=1.82 w=0.65 l=0.15
X48 a_n6135_n1349# ready.t4 a_n6207_n1349# vss.t0 sky130_fd_pr__nfet_01v8 ad=0.122 pd=1.42 as=0.0441 ps=0.63 w=0.42 l=0.15
X49 x10.Y x10.A vdd.t4 vdd.t3 sky130_fd_pr__pfet_01v8_hvt ad=0.26 pd=2.52 as=0.26 ps=2.52 w=1 l=0.15
X50 vss.t70 x9.A a_n397_n2289# vdd.t72 sky130_fd_pr__pfet_01v8_hvt ad=0.0693 pd=0.75 as=0.0651 ps=0.73 w=0.42 l=0.15
X51 a_n6207_n1073# ready.t5 a_n6295_n1211# vss.t9 sky130_fd_pr__nfet_01v8 ad=0.0441 pd=0.63 as=0.122 ps=1.42 w=0.42 l=0.15
X52 x2.x9.output_stack delay_offset.t1 x2.x7.floating vss.t43 sky130_fd_pr__nfet_01v8 ad=0.122 pd=1.42 as=0.122 ps=1.42 w=0.42 l=0.15
X53 x4.x10.Y.t0 async_resetb_delay_ctrl_code[3].t0 vss.t50 vss.t49 sky130_fd_pr__nfet_01v8 ad=0.169 pd=1.82 as=0.169 ps=1.82 w=0.65 l=0.15
X54 a_210_798# a_305_798# vdd.t7 vdd.t6 sky130_fd_pr__pfet_01v8_hvt ad=0.166 pd=1.8 as=0.149 ps=1.33 w=0.64 l=0.15
X55 x4.x4[3].floating async_resetb_delay_ctrl_code[2].t1 x4.x9.output_stack vss.t31 sky130_fd_pr__nfet_01v8 ad=0.122 pd=1.42 as=0.0966 ps=0.88 w=0.42 l=0.15
X56 x2.x9.output_stack ready.t6 a_n6270_n2738# vdd.t22 sky130_fd_pr__pfet_01v8_hvt ad=0.122 pd=1.42 as=0.122 ps=1.42 w=0.42 l=0.15
X57 vdd.t75 a_1373_1841# a_1403_1582# vdd.t74 sky130_fd_pr__pfet_01v8_hvt ad=0.0693 pd=0.75 as=0.0441 ps=0.63 w=0.42 l=0.15
X58 vdd.t5 a_305_798# x27.Q_N vdd.t3 sky130_fd_pr__pfet_01v8_hvt ad=0.154 pd=1.34 as=0.26 ps=2.52 w=1 l=0.15
X59 a_n6207_n1349# ready.t7 a_n6295_n1487# vss.t9 sky130_fd_pr__nfet_01v8 ad=0.0441 pd=0.63 as=0.122 ps=1.42 w=0.42 l=0.15
X60 a_724_824# a_860_798# a_305_798# vss.t44 sky130_fd_pr__nfet_01v8 ad=0.12 pd=1.08 as=0.0864 ps=0.91 w=0.64 l=0.15
X61 x4.x9.output_stack x4.x10.Y.t4 x4.x5[7].floating.t5 vdd.t20 sky130_fd_pr__pfet_01v8 ad=0.101 pd=0.9 as=0.122 ps=1.42 w=0.42 l=0.15
X62 a_n397_n2289# x2.x9.output_stack vdd.t45 vdd.t44 sky130_fd_pr__pfet_01v8_hvt ad=0.122 pd=1.42 as=0.122 ps=1.42 w=0.42 l=0.15
X63 a_n6135_n139# async_clk_sar.t9 a_n6207_n139# vss.t0 sky130_fd_pr__nfet_01v8 ad=0.122 pd=1.42 as=0.0441 ps=0.63 w=0.42 l=0.15
X64 a_2077_824# a_1159_798# a_1631_1008# vss.t68 sky130_fd_pr__nfet_01v8 ad=0.066 pd=0.745 as=0.0684 ps=0.74 w=0.36 l=0.15
X65 a_n397_736# x4.x9.output_stack vss.t75 vss.t51 sky130_fd_pr__nfet_01v8 ad=0.122 pd=1.42 as=0.122 ps=1.42 w=0.42 l=0.15
X66 a_1159_798# sample_clk.t2 vss.t42 vss.t41 sky130_fd_pr__nfet_01v8 ad=0.109 pd=1.36 as=0.0567 ps=0.69 w=0.42 l=0.15
X67 a_860_798# a_1159_798# a_1094_824# vss.t67 sky130_fd_pr__nfet_01v8 ad=0.0711 pd=0.755 as=0.066 ps=0.745 w=0.36 l=0.15
X68 vss.t25 x9.Y a_1499_824# vss.t24 sky130_fd_pr__nfet_01v8 ad=0.084 pd=0.82 as=0.101 ps=0.99 w=0.42 l=0.15
X69 vss.t85 a_210_798# x3.A0 vss.t84 sky130_fd_pr__nfet_01v8 ad=0.097 pd=0.975 as=0.169 ps=1.82 w=0.65 l=0.15
X70 x2.x9.output_stack ready.t8 a_n6207_n1763# vss.t0 sky130_fd_pr__nfet_01v8 ad=0.122 pd=1.42 as=0.0441 ps=0.63 w=0.42 l=0.15
X71 x4.x9.output_stack async_clk_sar.t10 a_n6207_689# vss.t0 sky130_fd_pr__nfet_01v8 ad=0.122 pd=1.42 as=0.0441 ps=0.63 w=0.42 l=0.15
X72 a_1913_1909# sample_clk.t3 vss.t54 vss.t53 sky130_fd_pr__nfet_01v8 ad=0.0693 pd=0.75 as=0.113 ps=1.04 w=0.42 l=0.15
X73 a_n6207_275# async_clk_sar.t11 a_n6295_275# vss.t9 sky130_fd_pr__nfet_01v8 ad=0.0441 pd=0.63 as=0.122 ps=1.42 w=0.42 l=0.15
X74 a_2077_824# a_1158_1098# a_1631_1008# vdd.t59 sky130_fd_pr__pfet_01v8_hvt ad=0.0662 pd=0.735 as=0.0567 ps=0.69 w=0.42 l=0.15
X75 a_n6207_n1763# ready.t9 a_n6295_n1763# vss.t9 sky130_fd_pr__nfet_01v8 ad=0.0441 pd=0.63 as=0.122 ps=1.42 w=0.42 l=0.15
X76 vss.t66 a_1159_798# a_1158_1098# vss.t65 sky130_fd_pr__nfet_01v8 ad=0.0567 pd=0.69 as=0.109 ps=1.36 w=0.42 l=0.15
X77 a_305_798# a_618_824# a_724_824# vss.t46 sky130_fd_pr__nfet_01v8 ad=0.0864 pd=0.91 as=0.166 ps=1.8 w=0.64 l=0.15
X78 a_n397_n1948# x2.x9.output_stack vss.t52 vss.t51 sky130_fd_pr__nfet_01v8 ad=0.122 pd=1.42 as=0.122 ps=1.42 w=0.42 l=0.15
X79 vss.t23 a_1363_798# a_1298_824# vss.t22 sky130_fd_pr__nfet_01v8 ad=0.166 pd=1.8 as=0.0935 ps=0.965 w=0.64 l=0.15
X80 x4.x9.output_stack async_clk_sar.t12 a_n6270_1526# vdd.t50 sky130_fd_pr__pfet_01v8_hvt ad=0.122 pd=1.42 as=0.122 ps=1.42 w=0.42 l=0.15
X81 a_1086_1909# eob.t1 vss.t48 vss.t47 sky130_fd_pr__nfet_01v8 ad=0.0693 pd=0.75 as=0.113 ps=1.04 w=0.42 l=0.15
X82 x4.x5[7].floating.t4 x4.x10.Y.t5 x4.x9.output_stack vdd.t20 sky130_fd_pr__pfet_01v8 ad=0.122 pd=1.42 as=0.101 ps=0.9 w=0.42 l=0.15
X83 x2.x9.output_stack x2.x6.SW x2.x6.floating vdd.t66 sky130_fd_pr__pfet_01v8 ad=0.122 pd=1.42 as=0.122 ps=1.42 w=0.42 l=0.15
X84 a_n6207_n139# async_clk_sar.t13 a_n6295_n277# vss.t9 sky130_fd_pr__nfet_01v8 ad=0.0441 pd=0.63 as=0.122 ps=1.42 w=0.42 l=0.15
X85 x9.Y x9.A vdd.t71 vdd.t70 sky130_fd_pr__pfet_01v8_hvt ad=0.26 pd=2.52 as=0.26 ps=2.52 w=1 l=0.15
X86 vss.t78 delay_offset.t2 x4.x6.SW vss.t77 sky130_fd_pr__nfet_01v8 ad=0.169 pd=1.82 as=0.169 ps=1.82 w=0.65 l=0.15
X87 x4.x9.output_stack x4.x10.Y.t6 x4.x5[7].floating.t3 vdd.t20 sky130_fd_pr__pfet_01v8 ad=0.101 pd=0.9 as=0.122 ps=1.42 w=0.42 l=0.15
X88 a_n6135_n1073# ready.t10 a_n6207_n935# vss.t0 sky130_fd_pr__nfet_01v8 ad=0.122 pd=1.42 as=0.0441 ps=0.63 w=0.42 l=0.15
X89 vdd.t57 ready.t11 a_n6270_n3290# vdd.t22 sky130_fd_pr__pfet_01v8_hvt ad=0.122 pd=1.42 as=0.122 ps=1.42 w=0.42 l=0.15
X90 x2.x2.floating async_setb_delay_ctrl_code[0].t0 x2.x9.output_stack vss.t11 sky130_fd_pr__nfet_01v8 ad=0.122 pd=1.42 as=0.124 ps=1.43 w=0.42 l=0.15
X91 vdd.t24 a_1771_1775# x3.X vdd.t23 sky130_fd_pr__pfet_01v8_hvt ad=0.158 pd=1.39 as=0.26 ps=2.52 w=1 l=0.15
X92 a_1094_824# a_305_798# vss.t13 vss.t12 sky130_fd_pr__nfet_01v8 ad=0.066 pd=0.745 as=0.0588 ps=0.7 w=0.42 l=0.15
X93 a_305_798# a_860_798# a_818_1106# vdd.t33 sky130_fd_pr__pfet_01v8_hvt ad=0.123 pd=1.17 as=0.0882 ps=1.05 w=0.84 l=0.15
X94 x4.x9.output_stack x4.x6.SW x4.x6.floating vdd.t27 sky130_fd_pr__pfet_01v8 ad=0.122 pd=1.42 as=0.122 ps=1.42 w=0.42 l=0.15
X95 a_n6135_n139# async_clk_sar.t14 a_n6207_n1# vss.t0 sky130_fd_pr__nfet_01v8 ad=0.122 pd=1.42 as=0.0441 ps=0.63 w=0.42 l=0.15
X96 vdd.t15 a_1363_798# a_1296_1190# vdd.t14 sky130_fd_pr__pfet_01v8_hvt ad=0.225 pd=1.38 as=0.174 ps=1.41 w=0.84 l=0.15
X97 vss.t82 delay_offset.t3 x2.x6.SW vss.t81 sky130_fd_pr__nfet_01v8 ad=0.169 pd=1.82 as=0.169 ps=1.82 w=0.65 l=0.15
X98 x2.x9.output_stack x2.x10.Y.t2 x2.x5[7].floating.t7 vdd.t56 sky130_fd_pr__pfet_01v8 ad=0.101 pd=0.9 as=0.122 ps=1.42 w=0.42 l=0.15
X99 a_n397_1077# x4.x9.output_stack x10.A vdd.t0 sky130_fd_pr__pfet_01v8_hvt ad=0.0651 pd=0.73 as=0.122 ps=1.42 w=0.42 l=0.15
X100 x4.x4[3].floating async_resetb_delay_ctrl_code[2].t2 x4.x9.output_stack vss.t32 sky130_fd_pr__nfet_01v8 ad=0.122 pd=1.42 as=0.0966 ps=0.88 w=0.42 l=0.15
X101 a_n397_n1948# x9.A vdd.t69 vss.t3 sky130_fd_pr__nfet_01v8 ad=0.13 pd=1.46 as=0.0693 ps=0.75 w=0.42 l=0.15
X102 a_n6135_137# async_clk_sar.t15 a_n6207_275# vss.t0 sky130_fd_pr__nfet_01v8 ad=0.122 pd=1.42 as=0.0441 ps=0.63 w=0.42 l=0.15
X103 a_n6182_1940# async_clk_sar.t16 a_n6270_1802# vdd.t48 sky130_fd_pr__pfet_01v8_hvt ad=0.122 pd=1.42 as=0.122 ps=1.42 w=0.42 l=0.15
X104 vdd.t61 a_2200_1841# a_2230_1582# vdd.t60 sky130_fd_pr__pfet_01v8_hvt ad=0.0693 pd=0.75 as=0.0441 ps=0.63 w=0.42 l=0.15
X105 a_1875_1190# a_1363_798# vdd.t13 vdd.t12 sky130_fd_pr__pfet_01v8_hvt ad=0.0945 pd=0.87 as=0.0798 ps=0.8 w=0.42 l=0.15
X106 x2.x9.output_stack x2.x10.Y.t3 x2.x5[7].floating.t6 vdd.t91 sky130_fd_pr__pfet_01v8 ad=0.101 pd=0.9 as=0.122 ps=1.42 w=0.42 l=0.15
X107 a_n6135_n1625# ready.t12 a_n6207_n1625# vss.t0 sky130_fd_pr__nfet_01v8 ad=0.122 pd=1.42 as=0.0441 ps=0.63 w=0.42 l=0.15
X108 a_n6207_137# async_clk_sar.t17 a_n6295_n1# vss.t9 sky130_fd_pr__nfet_01v8 ad=0.0441 pd=0.63 as=0.122 ps=1.42 w=0.42 l=0.15
X109 a_1577_1106# a_618_824# vdd.t35 vdd.t34 sky130_fd_pr__pfet_01v8_hvt ad=0.113 pd=1.11 as=0.225 ps=1.38 w=0.84 l=0.15
X110 vdd.t11 a_944_1775# async_clk_sar.t1 vdd.t10 sky130_fd_pr__pfet_01v8_hvt ad=0.158 pd=1.39 as=0.26 ps=2.52 w=1 l=0.15
X111 x4.x9.output_stack delay_offset.t4 x4.x7.floating vss.t43 sky130_fd_pr__nfet_01v8 ad=0.122 pd=1.42 as=0.122 ps=1.42 w=0.42 l=0.15
X112 x4.x9.output_stack async_resetb_delay_ctrl_code[1].t1 x4.x3[1].floating vss.t28 sky130_fd_pr__nfet_01v8 ad=0.0966 pd=0.88 as=0.122 ps=1.42 w=0.42 l=0.15
X113 x2.x10.Y.t0 async_setb_delay_ctrl_code[3].t0 vss.t80 vss.t79 sky130_fd_pr__nfet_01v8 ad=0.169 pd=1.82 as=0.169 ps=1.82 w=0.65 l=0.15
X114 a_1298_824# a_1158_1098# a_860_798# vss.t62 sky130_fd_pr__nfet_01v8 ad=0.0935 pd=0.965 as=0.0711 ps=0.755 w=0.36 l=0.15
X115 a_n6182_n2876# ready.t13 a_n6270_n3014# vdd.t22 sky130_fd_pr__pfet_01v8_hvt ad=0.122 pd=1.42 as=0.122 ps=1.42 w=0.42 l=0.15
X116 a_n6207_n935# ready.t14 a_n6295_n935# vss.t9 sky130_fd_pr__nfet_01v8 ad=0.0441 pd=0.63 as=0.122 ps=1.42 w=0.42 l=0.15
X117 a_1771_1775# x3.A0 a_1913_1582# vdd.t21 sky130_fd_pr__pfet_01v8_hvt ad=0.193 pd=1.34 as=0.0767 ps=0.785 w=0.42 l=0.15
X118 a_n6207_n1625# ready.t15 a_n6295_n1763# vss.t9 sky130_fd_pr__nfet_01v8 ad=0.0441 pd=0.63 as=0.122 ps=1.42 w=0.42 l=0.15
X119 vdd.t40 async_clk_sar.t18 a_n6270_2078# vdd.t39 sky130_fd_pr__pfet_01v8_hvt ad=0.122 pd=1.42 as=0.122 ps=1.42 w=0.42 l=0.15
X120 x2.x9.output_stack x2.x10.Y.t4 x2.x5[7].floating.t5 vdd.t79 sky130_fd_pr__pfet_01v8 ad=0.101 pd=0.9 as=0.122 ps=1.42 w=0.42 l=0.15
X121 a_1913_1582# sample_clk.t4 vdd.t32 vdd.t31 sky130_fd_pr__pfet_01v8_hvt ad=0.0767 pd=0.785 as=0.158 ps=1.39 w=0.42 l=0.15
X122 a_1499_824# a_1631_1008# a_1363_798# vss.t83 sky130_fd_pr__nfet_01v8 ad=0.101 pd=0.99 as=0.0864 ps=0.91 w=0.64 l=0.15
X123 vdd.t68 x9.A a_n397_n1948# vss.t4 sky130_fd_pr__nfet_01v8 ad=0.0693 pd=0.75 as=0.0651 ps=0.73 w=0.42 l=0.15
X124 x4.x5[7].floating.t2 x4.x10.Y.t7 x4.x9.output_stack vdd.t20 sky130_fd_pr__pfet_01v8 ad=0.122 pd=1.42 as=0.101 ps=0.9 w=0.42 l=0.15
X125 x2.x9.output_stack x2.x10.Y.t5 x2.x5[7].floating.t4 vdd.t82 sky130_fd_pr__pfet_01v8 ad=0.101 pd=0.9 as=0.122 ps=1.42 w=0.42 l=0.15
X126 x4.x9.output_stack x4.x10.Y.t8 x4.x5[7].floating.t1 vdd.t20 sky130_fd_pr__pfet_01v8 ad=0.101 pd=0.9 as=0.122 ps=1.42 w=0.42 l=0.15
X127 a_944_1775# x3.X a_1086_1582# vdd.t67 sky130_fd_pr__pfet_01v8_hvt ad=0.193 pd=1.34 as=0.0767 ps=0.785 w=0.42 l=0.15
X128 a_n6207_551# async_clk_sar.t19 a_n6295_551# vss.t9 sky130_fd_pr__nfet_01v8 ad=0.0441 pd=0.63 as=0.122 ps=1.42 w=0.42 l=0.15
X129 a_1086_1582# eob.t2 vdd.t55 vdd.t54 sky130_fd_pr__pfet_01v8_hvt ad=0.0767 pd=0.785 as=0.158 ps=1.39 w=0.42 l=0.15
X130 a_1363_798# a_618_824# a_1499_824# vss.t45 sky130_fd_pr__nfet_01v8 ad=0.0864 pd=0.91 as=0.166 ps=1.8 w=0.64 l=0.15
X131 a_1631_1008# a_1159_798# a_1875_1190# vdd.t64 sky130_fd_pr__pfet_01v8_hvt ad=0.0567 pd=0.69 as=0.0945 ps=0.87 w=0.42 l=0.15
X132 a_n6135_137# async_clk_sar.t20 a_n6207_137# vss.t0 sky130_fd_pr__nfet_01v8 ad=0.122 pd=1.42 as=0.0441 ps=0.63 w=0.42 l=0.15
X133 a_n6182_1664# async_clk_sar.t21 a_n6270_1802# vdd.t95 sky130_fd_pr__pfet_01v8_hvt ad=0.122 pd=1.42 as=0.122 ps=1.42 w=0.42 l=0.15
X134 a_n6135_n1349# ready.t16 a_n6207_n1211# vss.t0 sky130_fd_pr__nfet_01v8 ad=0.122 pd=1.42 as=0.0441 ps=0.63 w=0.42 l=0.15
X135 a_1631_1008# a_1158_1098# a_1875_824# vss.t61 sky130_fd_pr__nfet_01v8 ad=0.0684 pd=0.74 as=0.0671 ps=0.75 w=0.36 l=0.15
X136 a_1875_824# a_1363_798# vss.t21 vss.t20 sky130_fd_pr__nfet_01v8 ad=0.0671 pd=0.75 as=0.084 ps=0.82 w=0.42 l=0.15
X137 vdd.t2 x10.A a_n397_736# vss.t4 sky130_fd_pr__nfet_01v8 ad=0.0693 pd=0.75 as=0.0651 ps=0.73 w=0.42 l=0.15
X138 a_n6207_n1211# ready.t17 a_n6295_n1211# vss.t9 sky130_fd_pr__nfet_01v8 ad=0.0441 pd=0.63 as=0.122 ps=1.42 w=0.42 l=0.15
X139 vdd.t63 a_1159_798# a_1158_1098# vdd.t62 sky130_fd_pr__pfet_01v8_hvt ad=0.0864 pd=0.91 as=0.166 ps=1.8 w=0.64 l=0.15
X140 a_1373_1841# eob.t3 vss.t58 vss.t57 sky130_fd_pr__nfet_01v8 ad=0.109 pd=1.36 as=0.145 ps=1.11 w=0.42 l=0.15
X141 a_2200_1841# sample_clk.t5 vss.t60 vss.t59 sky130_fd_pr__nfet_01v8 ad=0.109 pd=1.36 as=0.145 ps=1.11 w=0.42 l=0.15
X142 a_n397_736# x10.A vdd.t1 vss.t3 sky130_fd_pr__nfet_01v8 ad=0.13 pd=1.46 as=0.0693 ps=0.75 w=0.42 l=0.15
X143 a_n397_n2289# x2.x9.output_stack x9.A vdd.t44 sky130_fd_pr__pfet_01v8_hvt ad=0.0651 pd=0.73 as=0.122 ps=1.42 w=0.42 l=0.15
X144 x4.x5[7].floating.t0 x4.x10.Y.t9 x4.x9.output_stack vdd.t20 sky130_fd_pr__pfet_01v8 ad=0.122 pd=1.42 as=0.101 ps=0.9 w=0.42 l=0.15
X145 x4.x9.output_stack async_resetb_delay_ctrl_code[2].t3 x4.x4[3].floating vss.t10 sky130_fd_pr__nfet_01v8 ad=0.0966 pd=0.88 as=0.122 ps=1.42 w=0.42 l=0.15
X146 a_n6182_n2876# ready.t18 a_n6270_n2738# vdd.t22 sky130_fd_pr__pfet_01v8_hvt ad=0.122 pd=1.42 as=0.122 ps=1.42 w=0.42 l=0.15
X147 x2.x9.output_stack async_setb_delay_ctrl_code[1].t0 x2.x3[1].floating vss.t28 sky130_fd_pr__nfet_01v8 ad=0.0966 pd=0.88 as=0.122 ps=1.42 w=0.42 l=0.15
X148 a_860_798# a_1158_1098# a_1094_1190# vdd.t58 sky130_fd_pr__pfet_01v8_hvt ad=0.0567 pd=0.69 as=0.0924 ps=0.86 w=0.42 l=0.15
X149 vdd.t42 delay_offset.t5 x2.x6.SW vdd.t41 sky130_fd_pr__pfet_01v8_hvt ad=0.26 pd=2.52 as=0.26 ps=2.52 w=1 l=0.15
X150 x2.x5[7].floating.t3 x2.x10.Y.t6 x2.x9.output_stack vdd.t90 sky130_fd_pr__pfet_01v8 ad=0.122 pd=1.42 as=0.101 ps=0.9 w=0.42 l=0.15
X151 a_n6135_413# async_clk_sar.t22 a_n6207_551# vss.t0 sky130_fd_pr__nfet_01v8 ad=0.122 pd=1.42 as=0.0441 ps=0.63 w=0.42 l=0.15
X152 vss.t74 a_1373_1841# a_1307_1909# vss.t73 sky130_fd_pr__nfet_01v8 ad=0.145 pd=1.11 as=0.0693 ps=0.75 w=0.42 l=0.15
X153 a_1771_1775# vss.t35 a_1913_1909# vss.t36 sky130_fd_pr__nfet_01v8 ad=0.0997 pd=0.895 as=0.0693 ps=0.75 w=0.42 l=0.15
X154 vss.t64 a_2200_1841# a_2134_1909# vss.t63 sky130_fd_pr__nfet_01v8 ad=0.145 pd=1.11 as=0.0693 ps=0.75 w=0.42 l=0.15
X155 x2.x5[7].floating.t2 x2.x10.Y.t7 x2.x9.output_stack vdd.t38 sky130_fd_pr__pfet_01v8 ad=0.122 pd=1.42 as=0.101 ps=0.9 w=0.42 l=0.15
X156 x2.x5[7].floating.t1 x2.x10.Y.t8 x2.x9.output_stack vdd.t43 sky130_fd_pr__pfet_01v8 ad=0.122 pd=1.42 as=0.101 ps=0.9 w=0.42 l=0.15
X157 a_n6207_413# async_clk_sar.t23 a_n6295_275# vss.t9 sky130_fd_pr__nfet_01v8 ad=0.0441 pd=0.63 as=0.122 ps=1.42 w=0.42 l=0.15
X158 x2.x10.Y.t1 async_setb_delay_ctrl_code[3].t1 vdd.t86 vdd.t85 sky130_fd_pr__pfet_01v8_hvt ad=0.26 pd=2.52 as=0.26 ps=2.52 w=1 l=0.15
X159 vss.t76 ready.t19 a_n6207_n797# vss.t0 sky130_fd_pr__nfet_01v8 ad=0.122 pd=1.42 as=0.0441 ps=0.63 w=0.42 l=0.15
X160 vdd.t92 a_210_798# x3.A0 vdd.t3 sky130_fd_pr__pfet_01v8_hvt ad=0.149 pd=1.33 as=0.26 ps=2.52 w=1 l=0.15
X161 vdd.t53 vdd.t51 a_2077_824# vdd.t52 sky130_fd_pr__pfet_01v8_hvt ad=0.109 pd=1.36 as=0.0662 ps=0.735 w=0.42 l=0.15
X162 x2.x5[7].floating.t0 x2.x10.Y.t9 x2.x9.output_stack vdd.t78 sky130_fd_pr__pfet_01v8 ad=0.122 pd=1.42 as=0.101 ps=0.9 w=0.42 l=0.15
X163 x4.x2.floating async_resetb_delay_ctrl_code[0].t0 x4.x9.output_stack vss.t11 sky130_fd_pr__nfet_01v8 ad=0.122 pd=1.42 as=0.124 ps=1.43 w=0.42 l=0.15
X164 x4.x10.Y.t1 async_resetb_delay_ctrl_code[3].t1 vdd.t84 vdd.t83 sky130_fd_pr__pfet_01v8_hvt ad=0.26 pd=2.52 as=0.26 ps=2.52 w=1 l=0.15
X165 a_n6182_n3152# ready.t20 a_n6270_n3290# vdd.t22 sky130_fd_pr__pfet_01v8_hvt ad=0.122 pd=1.42 as=0.122 ps=1.42 w=0.42 l=0.15
X166 vss.t2 x10.A a_n397_1077# vdd.t0 sky130_fd_pr__pfet_01v8_hvt ad=0.0693 pd=0.75 as=0.0651 ps=0.73 w=0.42 l=0.15
X167 x2.x9.output_stack async_setb_delay_ctrl_code[2].t3 x2.x4[3].floating vss.t30 sky130_fd_pr__nfet_01v8 ad=0.0966 pd=0.88 as=0.122 ps=1.42 w=0.42 l=0.15
X168 x2.x3[1].floating async_setb_delay_ctrl_code[1].t1 x2.x9.output_stack vss.t8 sky130_fd_pr__nfet_01v8 ad=0.122 pd=1.42 as=0.0966 ps=0.88 w=0.42 l=0.15
X169 a_n6135_n1625# ready.t21 a_n6207_n1487# vss.t0 sky130_fd_pr__nfet_01v8 ad=0.122 pd=1.42 as=0.0441 ps=0.63 w=0.42 l=0.15
R0 x4.x10.Y x4.x10.Y.t9 154.847
R1 x4.x10.Y x4.x10.Y.t6 154.8
R2 x4.x10.Y x4.x10.Y.t5 154.8
R3 x4.x10.Y x4.x10.Y.t3 154.8
R4 x4.x10.Y x4.x10.Y.t2 154.8
R5 x4.x10.Y x4.x10.Y.t8 154.8
R6 x4.x10.Y x4.x10.Y.t7 154.8
R7 x4.x10.Y x4.x10.Y.t4 154.8
R8 x4.x10.Y.n0 x4.x10.Y 134.239
R9 x4.x10.Y x4.x10.Y.t0 106.635
R10 x4.x10.Y.n2 x4.x10.Y.t1 24.6567
R11 x4.x10.Y.n5 x4.x10.Y.n4 12.4089
R12 x4.x10.Y.n3 x4.x10.Y.n2 9.12522
R13 x4.x10.Y.n4 x4.x10.Y.n3 7.34048
R14 x4.x10.Y.n5 x4.x10.Y 2.22659
R15 x4.x10.Y.n2 x4.x10.Y.n1 1.93377
R16 x4.x10.Y x4.x10.Y.n5 1.55202
R17 x4.x10.Y.n3 x4.x10.Y.n0 0.69928
R18 x4.x5[7].floating.n154 x4.x5[7].floating.t5 68.0345
R19 x4.x5[7].floating.n142 x4.x5[7].floating.t2 68.0345
R20 x4.x5[7].floating.n12 x4.x5[7].floating.t1 68.0345
R21 x4.x5[7].floating.n24 x4.x5[7].floating.t7 68.0345
R22 x4.x5[7].floating.n54 x4.x5[7].floating.t4 68.0345
R23 x4.x5[7].floating.n72 x4.x5[7].floating.t3 68.0345
R24 x4.x5[7].floating.n84 x4.x5[7].floating.t0 68.0345
R25 x4.x5[7].floating.n42 x4.x5[7].floating.t6 68.0345
R26 x4.x5[7].floating.n103 x4.x5[7].floating.n65 0.660401
R27 x4.x5[7].floating.n112 x4.x5[7].floating.n50 0.660401
R28 x4.x5[7].floating.n121 x4.x5[7].floating.n35 0.660401
R29 x4.x5[7].floating.n130 x4.x5[7].floating.n20 0.660401
R30 x4.x5[7].floating.n139 x4.x5[7].floating.n5 0.660401
R31 x4.x5[7].floating.n90 x4.x5[7].floating.n89 0.320345
R32 x4.x5[7].floating.n160 x4.x5[7].floating.n159 0.308269
R33 x4.x5[7].floating.n161 x4.x5[7].floating.n160 0.173084
R34 x4.x5[7].floating.n91 x4.x5[7].floating.n90 0.162103
R35 x4.x5[7].floating.n160 x4.x5[7].floating 0.100688
R36 x4.x5[7].floating.n90 x4.x5[7].floating 0.0755007
R37 x4.x5[7].floating.n66 x4.x5[7].floating.n65 0.0716912
R38 x4.x5[7].floating.n65 x4.x5[7].floating.n64 0.0716912
R39 x4.x5[7].floating.n36 x4.x5[7].floating.n35 0.0716912
R40 x4.x5[7].floating.n35 x4.x5[7].floating.n34 0.0716912
R41 x4.x5[7].floating.n6 x4.x5[7].floating.n5 0.0716912
R42 x4.x5[7].floating.n5 x4.x5[7].floating.n4 0.0716912
R43 x4.x5[7].floating.n104 x4.x5[7].floating.n103 0.0716912
R44 x4.x5[7].floating.n122 x4.x5[7].floating.n121 0.0716912
R45 x4.x5[7].floating.n140 x4.x5[7].floating.n139 0.0716912
R46 x4.x5[7].floating.n70 x4.x5[7].floating.n69 0.0557941
R47 x4.x5[7].floating.n69 x4.x5[7].floating.n68 0.0557941
R48 x4.x5[7].floating.n68 x4.x5[7].floating.n67 0.0557941
R49 x4.x5[7].floating.n67 x4.x5[7].floating.n66 0.0557941
R50 x4.x5[7].floating.n64 x4.x5[7].floating.n63 0.0557941
R51 x4.x5[7].floating.n63 x4.x5[7].floating.n62 0.0557941
R52 x4.x5[7].floating.n62 x4.x5[7].floating.n61 0.0557941
R53 x4.x5[7].floating.n61 x4.x5[7].floating.n60 0.0557941
R54 x4.x5[7].floating.n40 x4.x5[7].floating.n39 0.0557941
R55 x4.x5[7].floating.n39 x4.x5[7].floating.n38 0.0557941
R56 x4.x5[7].floating.n38 x4.x5[7].floating.n37 0.0557941
R57 x4.x5[7].floating.n37 x4.x5[7].floating.n36 0.0557941
R58 x4.x5[7].floating.n34 x4.x5[7].floating.n33 0.0557941
R59 x4.x5[7].floating.n33 x4.x5[7].floating.n32 0.0557941
R60 x4.x5[7].floating.n32 x4.x5[7].floating.n31 0.0557941
R61 x4.x5[7].floating.n31 x4.x5[7].floating.n30 0.0557941
R62 x4.x5[7].floating.n10 x4.x5[7].floating.n9 0.0557941
R63 x4.x5[7].floating.n9 x4.x5[7].floating.n8 0.0557941
R64 x4.x5[7].floating.n8 x4.x5[7].floating.n7 0.0557941
R65 x4.x5[7].floating.n7 x4.x5[7].floating.n6 0.0557941
R66 x4.x5[7].floating.n4 x4.x5[7].floating.n3 0.0557941
R67 x4.x5[7].floating.n3 x4.x5[7].floating.n2 0.0557941
R68 x4.x5[7].floating.n2 x4.x5[7].floating.n1 0.0557941
R69 x4.x5[7].floating.n1 x4.x5[7].floating.n0 0.0557941
R70 x4.x5[7].floating.n99 x4.x5[7].floating.n98 0.0557941
R71 x4.x5[7].floating.n100 x4.x5[7].floating.n99 0.0557941
R72 x4.x5[7].floating.n101 x4.x5[7].floating.n100 0.0557941
R73 x4.x5[7].floating.n102 x4.x5[7].floating.n101 0.0557941
R74 x4.x5[7].floating.n106 x4.x5[7].floating.n105 0.0557941
R75 x4.x5[7].floating.n107 x4.x5[7].floating.n106 0.0557941
R76 x4.x5[7].floating.n108 x4.x5[7].floating.n107 0.0557941
R77 x4.x5[7].floating.n117 x4.x5[7].floating.n116 0.0557941
R78 x4.x5[7].floating.n118 x4.x5[7].floating.n117 0.0557941
R79 x4.x5[7].floating.n119 x4.x5[7].floating.n118 0.0557941
R80 x4.x5[7].floating.n120 x4.x5[7].floating.n119 0.0557941
R81 x4.x5[7].floating.n124 x4.x5[7].floating.n123 0.0557941
R82 x4.x5[7].floating.n125 x4.x5[7].floating.n124 0.0557941
R83 x4.x5[7].floating.n126 x4.x5[7].floating.n125 0.0557941
R84 x4.x5[7].floating.n135 x4.x5[7].floating.n134 0.0557941
R85 x4.x5[7].floating.n136 x4.x5[7].floating.n135 0.0557941
R86 x4.x5[7].floating.n137 x4.x5[7].floating.n136 0.0557941
R87 x4.x5[7].floating.n138 x4.x5[7].floating.n137 0.0557941
R88 x4.x5[7].floating.n171 x4.x5[7].floating.n170 0.0557941
R89 x4.x5[7].floating.n170 x4.x5[7].floating.n169 0.0557941
R90 x4.x5[7].floating.n169 x4.x5[7].floating.n168 0.0557941
R91 x4.x5[7].floating.n95 x4.x5[7].floating.n94 0.0537206
R92 x4.x5[7].floating.n113 x4.x5[7].floating.n112 0.0537206
R93 x4.x5[7].floating.n131 x4.x5[7].floating.n130 0.0537206
R94 x4.x5[7].floating.n164 x4.x5[7].floating.n163 0.0537206
R95 x4.x5[7].floating.n94 x4.x5[7].floating.n93 0.0530294
R96 x4.x5[7].floating.n112 x4.x5[7].floating.n111 0.0530294
R97 x4.x5[7].floating.n130 x4.x5[7].floating.n129 0.0530294
R98 x4.x5[7].floating.n165 x4.x5[7].floating.n164 0.0530294
R99 x4.x5[7].floating.n80 x4.x5[7].floating.n79 0.0529559
R100 x4.x5[7].floating.n50 x4.x5[7].floating.n49 0.0529559
R101 x4.x5[7].floating.n20 x4.x5[7].floating.n19 0.0529559
R102 x4.x5[7].floating.n151 x4.x5[7].floating.n150 0.0529559
R103 x4.x5[7].floating.n81 x4.x5[7].floating.n80 0.0524559
R104 x4.x5[7].floating.n51 x4.x5[7].floating.n50 0.0524559
R105 x4.x5[7].floating.n21 x4.x5[7].floating.n20 0.0524559
R106 x4.x5[7].floating.n150 x4.x5[7].floating.n149 0.0524559
R107 x4.x5[7].floating.n109 x4.x5[7].floating.n108 0.0523382
R108 x4.x5[7].floating.n127 x4.x5[7].floating.n126 0.0523382
R109 x4.x5[7].floating.n168 x4.x5[7].floating.n167 0.0523382
R110 x4.x5[7].floating.n98 x4.x5[7].floating.n97 0.0516471
R111 x4.x5[7].floating.n116 x4.x5[7].floating.n115 0.0516471
R112 x4.x5[7].floating.n134 x4.x5[7].floating.n133 0.0516471
R113 x4.x5[7].floating.n103 x4.x5[7].floating 0.0495735
R114 x4.x5[7].floating.n121 x4.x5[7].floating 0.0495735
R115 x4.x5[7].floating.n139 x4.x5[7].floating 0.0495735
R116 x4.x5[7].floating.n157 x4.x5[7].floating.n156 0.0408846
R117 x4.x5[7].floating.n15 x4.x5[7].floating.n14 0.0408846
R118 x4.x5[7].floating.n75 x4.x5[7].floating.n74 0.0408846
R119 x4.x5[7].floating.n45 x4.x5[7].floating.n44 0.0408846
R120 x4.x5[7].floating.n105 x4.x5[7].floating 0.0336765
R121 x4.x5[7].floating.n123 x4.x5[7].floating 0.0336765
R122 x4.x5[7].floating x4.x5[7].floating.n171 0.0336765
R123 x4.x5[7].floating.n60 x4.x5[7].floating.n59 0.0271618
R124 x4.x5[7].floating.n30 x4.x5[7].floating.n29 0.0271618
R125 x4.x5[7].floating.n71 x4.x5[7].floating.n70 0.0266618
R126 x4.x5[7].floating.n41 x4.x5[7].floating.n40 0.0266618
R127 x4.x5[7].floating.n11 x4.x5[7].floating.n10 0.0266618
R128 x4.x5[7].floating x4.x5[7].floating.n102 0.0226176
R129 x4.x5[7].floating x4.x5[7].floating.n104 0.0226176
R130 x4.x5[7].floating x4.x5[7].floating.n120 0.0226176
R131 x4.x5[7].floating x4.x5[7].floating.n122 0.0226176
R132 x4.x5[7].floating x4.x5[7].floating.n138 0.0226176
R133 x4.x5[7].floating x4.x5[7].floating.n140 0.0226176
R134 x4.x5[7].floating.n93 x4.x5[7].floating.n92 0.0191618
R135 x4.x5[7].floating.n111 x4.x5[7].floating.n110 0.0191618
R136 x4.x5[7].floating.n129 x4.x5[7].floating.n128 0.0191618
R137 x4.x5[7].floating.n166 x4.x5[7].floating.n165 0.0191618
R138 x4.x5[7].floating.n96 x4.x5[7].floating.n95 0.0184706
R139 x4.x5[7].floating.n114 x4.x5[7].floating.n113 0.0184706
R140 x4.x5[7].floating.n132 x4.x5[7].floating.n131 0.0184706
R141 x4.x5[7].floating.n163 x4.x5[7].floating.n162 0.0184706
R142 x4.x5[7].floating.n82 x4.x5[7].floating.n81 0.014
R143 x4.x5[7].floating.n76 x4.x5[7].floating.n71 0.014
R144 x4.x5[7].floating.n52 x4.x5[7].floating.n51 0.014
R145 x4.x5[7].floating.n46 x4.x5[7].floating.n41 0.014
R146 x4.x5[7].floating.n22 x4.x5[7].floating.n21 0.014
R147 x4.x5[7].floating.n16 x4.x5[7].floating.n11 0.014