* NGSPICE file created from hgu_sarlogic_8bit_logic_flat.ext - technology: sky130A

.subckt hgu_sarlogic_8bit_logic_flat sel_bit[0] sel_bit[1] reset eob comparator_out
+ D[7] D[6] check[6] D[5] check[0] check[5] check[1] check[4] check[2] check[3] D[2]
+ D[3] D[1] D[4] D[0] clk_sar VSS VDD
X0 VDD.t263 a_10680_2340# D[3].t0 VDD.t262 sky130_fd_pr__pfet_01v8_hvt ad=0.149 pd=1.33 as=0.26 ps=2.52 w=1 l=0.15
X1 VDD.t266 a_8289_4086# check[1].t0 VDD.t265 sky130_fd_pr__pfet_01v8_hvt ad=0.149 pd=1.33 as=0.26 ps=2.52 w=1 l=0.15
X2 VDD.t333 D[0].t2 a_8236_3239# VDD.t332 sky130_fd_pr__pfet_01v8_hvt ad=0.0864 pd=0.91 as=0.166 ps=1.8 w=0.64 l=0.15
X3 VDD.t585 a_2389_5648# eob.t3 VDD.t584 sky130_fd_pr__pfet_01v8_hvt ad=0.154 pd=1.34 as=0.135 ps=1.27 w=1 l=0.15
X4 a_12030_3213# a_11856_3239# a_12146_3239# VSS.t550 sky130_fd_pr__nfet_01v8 ad=0.0864 pd=0.91 as=0.12 ps=1.08 w=0.64 l=0.15
X5 a_4971_4801# VDD.t725 VSS.t246 VSS.t245 sky130_fd_pr__nfet_01v8 ad=0.12 pd=1.08 as=0.0588 ps=0.7 w=0.42 l=0.15
X6 a_2147_5083# a_1682_4775# VDD.t542 VDD.t541 sky130_fd_pr__pfet_01v8_hvt ad=0.174 pd=1.41 as=0.225 ps=1.38 w=0.84 l=0.15
X7 a_1822_4801# x4.X.t32 VSS.t543 VSS.t542 sky130_fd_pr__nfet_01v8 ad=0.101 pd=0.99 as=0.084 ps=0.82 w=0.42 l=0.15
X8 a_11330_2340# a_11628_2640# a_11564_2732# VDD.t261 sky130_fd_pr__pfet_01v8_hvt ad=0.0567 pd=0.69 as=0.0924 ps=0.86 w=0.42 l=0.15
X9 VSS.t586 a_12030_3213# a_12737_3239# VSS.t585 sky130_fd_pr__nfet_01v8 ad=0.097 pd=0.975 as=0.109 ps=1.36 w=0.42 l=0.15
X10 a_4213_3239# a_4367_3213# a_4073_3213# VSS.t533 sky130_fd_pr__nfet_01v8 ad=0.166 pd=1.8 as=0.0864 ps=0.91 w=0.64 l=0.15
X11 a_8591_4801# check[5].t2 VSS.t150 VSS.t149 sky130_fd_pr__nfet_01v8 ad=0.066 pd=0.745 as=0.109 ps=1.36 w=0.42 l=0.15
X12 a_9710_4296# a_9238_4086# a_9954_4478# VDD.t609 sky130_fd_pr__pfet_01v8_hvt ad=0.0567 pd=0.69 as=0.0945 ps=0.87 w=0.42 l=0.15
X13 VSS.t605 x30.Q_N a_7185_2366# VSS.t604 sky130_fd_pr__nfet_01v8 ad=0.084 pd=0.82 as=0.101 ps=0.99 w=0.42 l=0.15
X14 VDD.t156 a_11250_4775# a_11160_5167# VDD.t155 sky130_fd_pr__pfet_01v8_hvt ad=0.0798 pd=0.8 as=0.0945 ps=0.87 w=0.42 l=0.15
X15 VSS.t570 a_5992_4086# x45.Q_N VSS.t569 sky130_fd_pr__nfet_01v8 ad=0.097 pd=0.975 as=0.169 ps=1.82 w=0.65 l=0.15
X16 a_3599_2340# a_3912_2366# a_4018_2366# VSS.t600 sky130_fd_pr__nfet_01v8 ad=0.0864 pd=0.91 as=0.166 ps=1.8 w=0.64 l=0.15
X17 x72.Q_N a_7246_3213# VSS.t144 VSS.t143 sky130_fd_pr__nfet_01v8 ad=0.169 pd=1.82 as=0.097 ps=0.975 w=0.65 l=0.15
X18 VSS.t521 x27.Q_N a_4018_2366# VSS.t520 sky130_fd_pr__nfet_01v8 ad=0.0588 pd=0.7 as=0.12 ps=1.08 w=0.42 l=0.15
X19 a_4854_3213# x77.Y VDD.t7 VDD.t6 sky130_fd_pr__pfet_01v8_hvt ad=0.123 pd=1.17 as=0.0819 ps=0.81 w=0.42 l=0.15
X20 a_7072_3239# a_5844_3239# a_6930_3521# VDD.t637 sky130_fd_pr__pfet_01v8_hvt ad=0.0567 pd=0.69 as=0.174 ps=1.41 w=0.42 l=0.15
X21 a_9442_4086# a_8697_4112# a_9578_4112# VSS.t116 sky130_fd_pr__nfet_01v8 ad=0.0864 pd=0.91 as=0.166 ps=1.8 w=0.64 l=0.15
X22 VSS.t263 x4.X.t33 a_9151_3213# VSS.t262 sky130_fd_pr__nfet_01v8 ad=0.097 pd=0.975 as=0.109 ps=1.36 w=0.42 l=0.15
X23 VDD.t137 a_7246_3213# a_7158_3605# VDD.t136 sky130_fd_pr__pfet_01v8_hvt ad=0.0819 pd=0.81 as=0.0924 ps=0.86 w=0.42 l=0.15
X24 VDD.t180 a_5897_4086# check[0].t1 VDD.t179 sky130_fd_pr__pfet_01v8_hvt ad=0.149 pd=1.33 as=0.26 ps=2.52 w=1 l=0.15
X25 a_11089_4112# x4.X.t34 VDD.t276 VDD.t275 sky130_fd_pr__pfet_01v8_hvt ad=0.166 pd=1.8 as=0.154 ps=1.34 w=0.64 l=0.15
X26 a_4793_2366# a_4925_2550# a_4657_2340# VSS.t410 sky130_fd_pr__nfet_01v8 ad=0.101 pd=0.99 as=0.0864 ps=0.91 w=0.64 l=0.15
X27 VDD.t170 x75.Q a_5844_3239# VDD.t169 sky130_fd_pr__pfet_01v8_hvt ad=0.0864 pd=0.91 as=0.166 ps=1.8 w=0.64 l=0.15
X28 a_6978_4801# a_6466_4775# VSS.t529 VSS.t528 sky130_fd_pr__nfet_01v8 ad=0.0935 pd=0.965 as=0.166 ps=1.8 w=0.64 l=0.15
X29 a_4388_2732# a_3599_2340# VDD.t712 VDD.t711 sky130_fd_pr__pfet_01v8_hvt ad=0.0924 pd=0.86 as=0.0819 ps=0.81 w=0.42 l=0.15
X30 a_2788_5674# check[2].t2 VSS.t136 VSS.t135 sky130_fd_pr__nfet_01v8 ad=0.066 pd=0.745 as=0.107 ps=1 w=0.42 l=0.15
X31 a_10794_3239# a_10628_3239# VDD.t337 VDD.t336 sky130_fd_pr__pfet_01v8_hvt ad=0.166 pd=1.8 as=0.0864 ps=0.91 w=0.64 l=0.15
X32 VSS.t45 D[0].t3 a_8236_3239# VSS.t44 sky130_fd_pr__nfet_01v8 ad=0.0567 pd=0.69 as=0.109 ps=1.36 w=0.42 l=0.15
X33 VDD.t325 x4.X.t35 a_4368_4775# VDD.t324 sky130_fd_pr__pfet_01v8_hvt ad=0.154 pd=1.34 as=0.166 ps=1.8 w=0.64 l=0.15
X34 a_9465_4801# a_8403_4801# a_9370_4801# VSS.t592 sky130_fd_pr__nfet_01v8 ad=0.0711 pd=0.755 as=0.0935 ps=0.965 w=0.36 l=0.15
X35 VSS.t484 a_1511_4112# x4.X.t15 VSS.t483 sky130_fd_pr__nfet_01v8 ad=0.0878 pd=0.92 as=0.0878 ps=0.92 w=0.65 l=0.15
X36 a_12048_4394# a_11089_4112# VDD.t3 VDD.t2 sky130_fd_pr__pfet_01v8_hvt ad=0.113 pd=1.11 as=0.225 ps=1.38 w=0.84 l=0.15
X37 a_9101_3521# a_8683_3605# a_8857_3213# VDD.t533 sky130_fd_pr__pfet_01v8_hvt ad=0.113 pd=1.11 as=0.147 ps=1.23 w=0.84 l=0.15
X38 a_7247_4775# VDD.t257 VDD.t259 VDD.t258 sky130_fd_pr__pfet_01v8_hvt ad=0.123 pd=1.17 as=0.0819 ps=0.81 w=0.42 l=0.15
X39 VDD.t107 a_6846_4086# a_6845_4386# VDD.t106 sky130_fd_pr__pfet_01v8_hvt ad=0.0864 pd=0.91 as=0.166 ps=1.8 w=0.64 l=0.15
X40 VSS.t541 x20.Q_N a_1626_2366# VSS.t540 sky130_fd_pr__nfet_01v8 ad=0.0588 pd=0.7 as=0.12 ps=1.08 w=0.42 l=0.15
X41 D[2].t0 a_12737_3239# VSS.t580 VSS.t579 sky130_fd_pr__nfet_01v8 ad=0.169 pd=1.82 as=0.097 ps=0.975 w=0.65 l=0.15
X42 a_11250_4775# a_11076_5167# a_11390_4801# VSS.t28 sky130_fd_pr__nfet_01v8 ad=0.0864 pd=0.91 as=0.101 ps=0.99 w=0.64 l=0.15
X43 a_4680_3239# a_3452_3239# a_4538_3521# VDD.t200 sky130_fd_pr__pfet_01v8_hvt ad=0.0567 pd=0.69 as=0.174 ps=1.41 w=0.42 l=0.15
X44 a_2479_2648# a_1520_2366# VDD.t694 VDD.t693 sky130_fd_pr__pfet_01v8_hvt ad=0.113 pd=1.11 as=0.225 ps=1.38 w=0.84 l=0.15
X45 VDD.t349 a_4854_3213# a_4766_3605# VDD.t348 sky130_fd_pr__pfet_01v8_hvt ad=0.0819 pd=0.81 as=0.0924 ps=0.86 w=0.42 l=0.15
X46 a_11184_4801# a_10795_4801# a_11076_5167# VSS.t91 sky130_fd_pr__nfet_01v8 ad=0.0671 pd=0.75 as=0.0684 ps=0.74 w=0.36 l=0.15
X47 VSS.t609 a_1338_5674# x5.X.t1 VSS.t608 sky130_fd_pr__nfet_01v8 ad=0.172 pd=1.83 as=0.0878 ps=0.92 w=0.65 l=0.15
X48 a_2784_5996# check[2].t3 VDD.t129 VDD.t128 sky130_fd_pr__pfet_01v8_hvt ad=0.105 pd=0.995 as=0.154 ps=1.34 w=0.64 l=0.15
X49 a_4593_4112# a_4453_4386# a_4155_4086# VSS.t138 sky130_fd_pr__nfet_01v8 ad=0.0935 pd=0.965 as=0.0711 ps=0.755 w=0.36 l=0.15
X50 a_1996_2732# a_1207_2340# VDD.t331 VDD.t330 sky130_fd_pr__pfet_01v8_hvt ad=0.0924 pd=0.86 as=0.0819 ps=0.81 w=0.42 l=0.15
X51 a_7181_3239# a_5844_3239# a_7072_3239# VSS.t598 sky130_fd_pr__nfet_01v8 ad=0.066 pd=0.745 as=0.0711 ps=0.755 w=0.36 l=0.15
X52 a_6198_3239# comparator_out.t0 VSS.t353 VSS.t352 sky130_fd_pr__nfet_01v8 ad=0.066 pd=0.745 as=0.109 ps=1.36 w=0.42 l=0.15
X53 x4.X.t31 a_1511_4112# VDD.t511 VDD.t510 sky130_fd_pr__pfet_01v8_hvt ad=0.135 pd=1.27 as=0.135 ps=1.27 w=1 l=0.15
X54 a_2265_2340# a_1520_2366# a_2401_2366# VSS.t643 sky130_fd_pr__nfet_01v8 ad=0.0864 pd=0.91 as=0.166 ps=1.8 w=0.64 l=0.15
X55 a_12031_4775# a_11857_4801# a_12147_4801# VSS.t662 sky130_fd_pr__nfet_01v8 ad=0.0864 pd=0.91 as=0.12 ps=1.08 w=0.64 l=0.15
X56 VSS.t178 x75.Q a_5844_3239# VSS.t177 sky130_fd_pr__nfet_01v8 ad=0.0567 pd=0.69 as=0.109 ps=1.36 w=0.42 l=0.15
X57 VDD.t256 VDD.t254 a_1976_4775# VDD.t255 sky130_fd_pr__pfet_01v8_hvt ad=0.154 pd=1.34 as=0.166 ps=1.8 w=0.64 l=0.15
X58 VSS.t549 a_7050_4086# a_6985_4112# VSS.t548 sky130_fd_pr__nfet_01v8 ad=0.166 pd=1.8 as=0.0935 ps=0.965 w=0.64 l=0.15
X59 a_1762_2340# a_2060_2640# a_1996_2732# VDD.t164 sky130_fd_pr__pfet_01v8_hvt ad=0.0567 pd=0.69 as=0.0924 ps=0.86 w=0.42 l=0.15
X60 VDD.t447 check[1].t2 a_2969_6040# VDD.t446 sky130_fd_pr__pfet_01v8_hvt ad=0.166 pd=1.8 as=0.138 ps=1.16 w=0.64 l=0.15
X61 a_2883_5674# a_2853_5648# a_2788_5674# VSS.t407 sky130_fd_pr__nfet_01v8 ad=0.072 pd=0.76 as=0.066 ps=0.745 w=0.36 l=0.15
X62 a_7562_4478# a_7050_4086# VDD.t576 VDD.t575 sky130_fd_pr__pfet_01v8_hvt ad=0.0945 pd=0.87 as=0.0798 ps=0.8 w=0.42 l=0.15
X63 a_10775_2340# a_11088_2366# a_11194_2366# VSS.t397 sky130_fd_pr__nfet_01v8 ad=0.0864 pd=0.91 as=0.166 ps=1.8 w=0.64 l=0.15
X64 a_6504_2648# a_6304_2366# VDD.t322 VDD.t321 sky130_fd_pr__pfet_01v8_hvt ad=0.0882 pd=1.05 as=0.218 ps=2.2 w=0.84 l=0.15
X65 a_4214_4801# a_4368_4775# a_4074_4775# VSS.t210 sky130_fd_pr__nfet_01v8 ad=0.166 pd=1.8 as=0.0864 ps=0.91 w=0.64 l=0.15
X66 VSS.t261 x36.Q_N a_11194_2366# VSS.t260 sky130_fd_pr__nfet_01v8 ad=0.0588 pd=0.7 as=0.12 ps=1.08 w=0.42 l=0.15
X67 a_10794_3239# a_10628_3239# VSS.t314 VSS.t313 sky130_fd_pr__nfet_01v8 ad=0.109 pd=1.36 as=0.0567 ps=0.69 w=0.42 l=0.15
X68 a_1511_4112# x4.A VSS.t286 VSS.t285 sky130_fd_pr__nfet_01v8 ad=0.0878 pd=0.92 as=0.0878 ps=0.92 w=0.65 l=0.15
X69 a_4855_4775# VDD.t251 VDD.t253 VDD.t252 sky130_fd_pr__pfet_01v8_hvt ad=0.123 pd=1.17 as=0.0819 ps=0.81 w=0.42 l=0.15
X70 a_7073_4801# a_5845_4801# a_6931_5083# VDD.t392 sky130_fd_pr__pfet_01v8_hvt ad=0.0567 pd=0.69 as=0.174 ps=1.41 w=0.42 l=0.15
X71 VDD.t519 a_4454_4086# a_4453_4386# VDD.t518 sky130_fd_pr__pfet_01v8_hvt ad=0.0864 pd=0.91 as=0.166 ps=1.8 w=0.64 l=0.15
X72 VDD.t366 a_7247_4775# a_7159_5167# VDD.t365 sky130_fd_pr__pfet_01v8_hvt ad=0.0819 pd=0.81 as=0.0924 ps=0.86 w=0.42 l=0.15
X73 x4.A a_897_4112# VDD.t386 VDD.t385 sky130_fd_pr__pfet_01v8_hvt ad=0.135 pd=1.27 as=0.135 ps=1.27 w=1 l=0.15
X74 x30.Q_N a_7247_4775# VSS.t343 VSS.t342 sky130_fd_pr__nfet_01v8 ad=0.169 pd=1.82 as=0.097 ps=0.975 w=0.65 l=0.15
X75 x4.X.t30 a_1511_4112# VDD.t509 VDD.t508 sky130_fd_pr__pfet_01v8_hvt ad=0.135 pd=1.27 as=0.135 ps=1.27 w=1 l=0.15
X76 a_12345_2732# a_11833_2340# VDD.t360 VDD.t359 sky130_fd_pr__pfet_01v8_hvt ad=0.0945 pd=0.87 as=0.0798 ps=0.8 w=0.42 l=0.15
X77 VSS.t412 check[0].t2 a_5372_4112# VSS.t411 sky130_fd_pr__nfet_01v8 ad=0.109 pd=1.36 as=0.066 ps=0.745 w=0.42 l=0.15
X78 a_8803_4112# a_8939_4086# a_8384_4086# VSS.t189 sky130_fd_pr__nfet_01v8 ad=0.12 pd=1.08 as=0.0864 ps=0.91 w=0.64 l=0.15
X79 VSS.t304 x4.X.t36 a_9152_4775# VSS.t303 sky130_fd_pr__nfet_01v8 ad=0.097 pd=0.975 as=0.109 ps=1.36 w=0.42 l=0.15
X80 a_3806_3239# VSS.t68 VSS.t70 VSS.t69 sky130_fd_pr__nfet_01v8 ad=0.066 pd=0.745 as=0.109 ps=1.36 w=0.42 l=0.15
X81 VDD.t570 x20.Q_N a_1207_2340# VDD.t569 sky130_fd_pr__pfet_01v8_hvt ad=0.0819 pd=0.81 as=0.123 ps=1.17 w=0.42 l=0.15
X82 VSS.t133 check[1].t3 a_2993_5674# VSS.t132 sky130_fd_pr__nfet_01v8 ad=0.109 pd=1.36 as=0.0786 ps=0.805 w=0.42 l=0.15
X83 VSS.t244 VDD.t726 a_8803_4112# VSS.t243 sky130_fd_pr__nfet_01v8 ad=0.0588 pd=0.7 as=0.12 ps=1.08 w=0.42 l=0.15
X84 VSS.t80 a_10776_4086# x39.Q_N VSS.t79 sky130_fd_pr__nfet_01v8 ad=0.097 pd=0.975 as=0.169 ps=1.82 w=0.65 l=0.15
X85 a_6291_3605# a_5844_3239# a_6198_3239# VSS.t597 sky130_fd_pr__nfet_01v8 ad=0.0684 pd=0.74 as=0.066 ps=0.745 w=0.36 l=0.15
X86 x75.Q_N a_4854_3213# VDD.t347 VDD.t346 sky130_fd_pr__pfet_01v8_hvt ad=0.26 pd=2.52 as=0.154 ps=1.34 w=1 l=0.15
X87 VSS.t7 x5.X.t4 a_8237_4801# VSS.t6 sky130_fd_pr__nfet_01v8 ad=0.0567 pd=0.69 as=0.109 ps=1.36 w=0.42 l=0.15
X88 VSS.t507 a_6465_3213# a_6399_3239# VSS.t506 sky130_fd_pr__nfet_01v8 ad=0.084 pd=0.82 as=0.0671 ps=0.75 w=0.42 l=0.15
X89 a_1822_4801# a_1976_4775# a_1682_4775# VSS.t442 sky130_fd_pr__nfet_01v8 ad=0.166 pd=1.8 as=0.0864 ps=0.91 w=0.64 l=0.15
X90 VDD.t162 a_10775_2340# x63.Q_N VDD.t161 sky130_fd_pr__pfet_01v8_hvt ad=0.154 pd=1.34 as=0.26 ps=2.52 w=1 l=0.15
X91 a_9102_5083# a_8684_5167# a_8858_4775# VDD.t78 sky130_fd_pr__pfet_01v8_hvt ad=0.113 pd=1.11 as=0.147 ps=1.23 w=0.84 l=0.15
X92 a_11856_3239# a_10628_3239# a_11714_3521# VDD.t335 sky130_fd_pr__pfet_01v8_hvt ad=0.0567 pd=0.69 as=0.174 ps=1.41 w=0.42 l=0.15
X93 a_4681_4801# a_3453_4801# a_4539_5083# VDD.t523 sky130_fd_pr__pfet_01v8_hvt ad=0.0567 pd=0.69 as=0.174 ps=1.41 w=0.42 l=0.15
X94 VDD.t686 a_4855_4775# a_4767_5167# VDD.t685 sky130_fd_pr__pfet_01v8_hvt ad=0.0819 pd=0.81 as=0.0924 ps=0.86 w=0.42 l=0.15
X95 a_9953_2366# a_9441_2340# VSS.t154 VSS.t153 sky130_fd_pr__nfet_01v8 ad=0.0671 pd=0.75 as=0.084 ps=0.82 w=0.42 l=0.15
X96 check[3].t0 a_12738_4801# VSS.t333 VSS.t332 sky130_fd_pr__nfet_01v8 ad=0.169 pd=1.82 as=0.097 ps=0.975 w=0.65 l=0.15
X97 a_1112_2340# a_1207_2340# VSS.t310 VSS.t309 sky130_fd_pr__nfet_01v8 ad=0.109 pd=1.36 as=0.097 ps=0.975 w=0.42 l=0.15
X98 a_11769_4112# a_11629_4386# a_11331_4086# VSS.t269 sky130_fd_pr__nfet_01v8 ad=0.0935 pd=0.965 as=0.0711 ps=0.755 w=0.36 l=0.15
X99 a_2579_4801# x4.X.t37 VSS.t432 VSS.t431 sky130_fd_pr__nfet_01v8 ad=0.12 pd=1.08 as=0.0588 ps=0.7 w=0.42 l=0.15
X100 a_4155_4086# a_4453_4386# a_4389_4478# VDD.t131 sky130_fd_pr__pfet_01v8_hvt ad=0.0567 pd=0.69 as=0.0924 ps=0.86 w=0.42 l=0.15
X101 a_7480_3521# a_7072_3239# a_7246_3213# VDD.t182 sky130_fd_pr__pfet_01v8_hvt ad=0.0882 pd=1.05 as=0.123 ps=1.17 w=0.84 l=0.15
X102 VSS.t242 VDD.t727 a_9578_4112# VSS.t241 sky130_fd_pr__nfet_01v8 ad=0.084 pd=0.82 as=0.101 ps=0.99 w=0.42 l=0.15
X103 a_5992_4086# a_6305_4112# a_6411_4112# VSS.t379 sky130_fd_pr__nfet_01v8 ad=0.0864 pd=0.91 as=0.166 ps=1.8 w=0.64 l=0.15
X104 VDD.t376 comparator_out.t1 a_12547_2366# VDD.t375 sky130_fd_pr__pfet_01v8_hvt ad=0.109 pd=1.36 as=0.0662 ps=0.735 w=0.42 l=0.15
X105 a_6199_4801# check[6].t2 VSS.t625 VSS.t624 sky130_fd_pr__nfet_01v8 ad=0.066 pd=0.745 as=0.109 ps=1.36 w=0.42 l=0.15
X106 a_7182_4801# a_5845_4801# a_7073_4801# VSS.t369 sky130_fd_pr__nfet_01v8 ad=0.066 pd=0.745 as=0.0711 ps=0.755 w=0.36 l=0.15
X107 VSS.t240 VDD.t728 a_6411_4112# VSS.t239 sky130_fd_pr__nfet_01v8 ad=0.0588 pd=0.7 as=0.12 ps=1.08 w=0.42 l=0.15
X108 VDD.t455 x4.X.t38 a_6759_3213# VDD.t454 sky130_fd_pr__pfet_01v8_hvt ad=0.154 pd=1.34 as=0.166 ps=1.8 w=0.64 l=0.15
X109 x33.Q_N a_9639_4775# VSS.t97 VSS.t96 sky130_fd_pr__nfet_01v8 ad=0.169 pd=1.82 as=0.097 ps=0.975 w=0.65 l=0.15
X110 VSS.t519 x27.Q_N a_4793_2366# VSS.t518 sky130_fd_pr__nfet_01v8 ad=0.084 pd=0.82 as=0.101 ps=0.99 w=0.42 l=0.15
X111 a_3899_3605# a_3452_3239# a_3806_3239# VSS.t206 sky130_fd_pr__nfet_01v8 ad=0.0684 pd=0.74 as=0.066 ps=0.745 w=0.36 l=0.15
X112 VSS.t420 x5.X.t5 a_5845_4801# VSS.t419 sky130_fd_pr__nfet_01v8 ad=0.0567 pd=0.69 as=0.109 ps=1.36 w=0.42 l=0.15
X113 D[1].t1 a_10345_3239# VDD.t459 VDD.t458 sky130_fd_pr__pfet_01v8_hvt ad=0.26 pd=2.52 as=0.149 ps=1.33 w=1 l=0.15
X114 a_6710_5083# a_6292_5167# a_6466_4775# VDD.t538 sky130_fd_pr__pfet_01v8_hvt ad=0.113 pd=1.11 as=0.147 ps=1.23 w=0.84 l=0.15
X115 a_11195_4112# a_11331_4086# a_10776_4086# VSS.t327 sky130_fd_pr__nfet_01v8 ad=0.12 pd=1.08 as=0.0864 ps=0.91 w=0.64 l=0.15
X116 a_6375_3605# a_5844_3239# a_6291_3605# VDD.t636 sky130_fd_pr__pfet_01v8_hvt ad=0.0945 pd=0.87 as=0.0567 ps=0.69 w=0.42 l=0.15
X117 a_2969_6040# a_2853_5648# a_2883_5674# VDD.t434 sky130_fd_pr__pfet_01v8_hvt ad=0.138 pd=1.16 as=0.0567 ps=0.69 w=0.42 l=0.15
X118 a_8288_2340# a_8383_2340# VDD.t400 VDD.t399 sky130_fd_pr__pfet_01v8_hvt ad=0.166 pd=1.8 as=0.149 ps=1.33 w=0.64 l=0.15
X119 a_10795_4801# a_10629_4801# VSS.t267 VSS.t266 sky130_fd_pr__nfet_01v8 ad=0.109 pd=1.36 as=0.0567 ps=0.69 w=0.42 l=0.15
X120 a_7050_4086# a_6305_4112# a_7186_4112# VSS.t378 sky130_fd_pr__nfet_01v8 ad=0.0864 pd=0.91 as=0.166 ps=1.8 w=0.64 l=0.15
X121 a_11965_3239# a_10628_3239# a_11856_3239# VSS.t312 sky130_fd_pr__nfet_01v8 ad=0.066 pd=0.745 as=0.0711 ps=0.755 w=0.36 l=0.15
X122 a_12102_4296# a_11629_4386# a_12346_4112# VSS.t268 sky130_fd_pr__nfet_01v8 ad=0.0684 pd=0.74 as=0.0671 ps=0.75 w=0.36 l=0.15
X123 VSS.t202 a_2463_4775# a_3170_4801# VSS.t201 sky130_fd_pr__nfet_01v8 ad=0.097 pd=0.975 as=0.109 ps=1.36 w=0.42 l=0.15
X124 a_11970_4112# a_12102_4296# a_11834_4086# VSS.t29 sky130_fd_pr__nfet_01v8 ad=0.101 pd=0.99 as=0.0864 ps=0.91 w=0.64 l=0.15
X125 VDD.t120 a_3505_4086# x48.Q VDD.t119 sky130_fd_pr__pfet_01v8_hvt ad=0.149 pd=1.33 as=0.26 ps=2.52 w=1 l=0.15
X126 a_8590_3239# comparator_out.t2 VDD.t116 VDD.t115 sky130_fd_pr__pfet_01v8_hvt ad=0.0662 pd=0.735 as=0.109 ps=1.36 w=0.42 l=0.15
X127 VDD.t152 VSS.t674 a_3452_3239# VDD.t151 sky130_fd_pr__pfet_01v8_hvt ad=0.0864 pd=0.91 as=0.166 ps=1.8 w=0.64 l=0.15
X128 x4.X.t29 a_1511_4112# VDD.t507 VDD.t506 sky130_fd_pr__pfet_01v8_hvt ad=0.135 pd=1.27 as=0.135 ps=1.27 w=1 l=0.15
X129 a_4113_4394# a_3913_4112# VDD.t141 VDD.t140 sky130_fd_pr__pfet_01v8_hvt ad=0.0882 pd=1.05 as=0.218 ps=2.2 w=0.84 l=0.15
X130 VSS.t347 a_11834_4086# a_11769_4112# VSS.t346 sky130_fd_pr__nfet_01v8 ad=0.166 pd=1.8 as=0.0935 ps=0.965 w=0.64 l=0.15
X131 a_3807_4801# x27.D VSS.t371 VSS.t370 sky130_fd_pr__nfet_01v8 ad=0.066 pd=0.745 as=0.109 ps=1.36 w=0.42 l=0.15
X132 a_4790_4801# a_3453_4801# a_4681_4801# VSS.t494 sky130_fd_pr__nfet_01v8 ad=0.066 pd=0.745 as=0.0711 ps=0.755 w=0.36 l=0.15
X133 VSS.t539 x20.Q_N a_2401_2366# VSS.t538 sky130_fd_pr__nfet_01v8 ad=0.084 pd=0.82 as=0.101 ps=0.99 w=0.42 l=0.15
X134 a_1511_4112# x4.A VSS.t284 VSS.t283 sky130_fd_pr__nfet_01v8 ad=0.0878 pd=0.92 as=0.0878 ps=0.92 w=0.65 l=0.15
X135 a_11564_2366# a_10775_2340# VSS.t168 VSS.t167 sky130_fd_pr__nfet_01v8 ad=0.066 pd=0.745 as=0.0588 ps=0.7 w=0.42 l=0.15
X136 a_7763_2366# a_6844_2640# a_7317_2550# VDD.t633 sky130_fd_pr__pfet_01v8_hvt ad=0.0662 pd=0.735 as=0.0567 ps=0.69 w=0.42 l=0.15
X137 a_11714_3521# a_11249_3213# VDD.t188 VDD.t187 sky130_fd_pr__pfet_01v8_hvt ad=0.174 pd=1.41 as=0.225 ps=1.38 w=0.84 l=0.15
X138 a_11857_4801# a_10629_4801# a_11715_5083# VDD.t280 sky130_fd_pr__pfet_01v8_hvt ad=0.0567 pd=0.69 as=0.174 ps=1.41 w=0.42 l=0.15
X139 x4.A a_897_4112# VDD.t384 VDD.t383 sky130_fd_pr__pfet_01v8_hvt ad=0.135 pd=1.27 as=0.135 ps=1.27 w=1 l=0.15
X140 a_6292_5167# a_5845_4801# a_6199_4801# VSS.t368 sky130_fd_pr__nfet_01v8 ad=0.0684 pd=0.74 as=0.066 ps=0.745 w=0.36 l=0.15
X141 VDD.t329 a_1207_2340# x51.Q_N VDD.t328 sky130_fd_pr__pfet_01v8_hvt ad=0.154 pd=1.34 as=0.26 ps=2.52 w=1 l=0.15
X142 a_3983_3605# a_3452_3239# a_3899_3605# VDD.t199 sky130_fd_pr__pfet_01v8_hvt ad=0.0945 pd=0.87 as=0.0567 ps=0.69 w=0.42 l=0.15
X143 a_2389_5648# a_3258_5648# a_2883_5674# VSS.t46 sky130_fd_pr__nfet_01v8 ad=0.0578 pd=0.695 as=0.109 ps=1.36 w=0.42 l=0.15
X144 a_5896_2340# a_5991_2340# VDD.t58 VDD.t57 sky130_fd_pr__pfet_01v8_hvt ad=0.166 pd=1.8 as=0.149 ps=1.33 w=0.64 l=0.15
X145 VSS.t527 a_6466_4775# a_6400_4801# VSS.t526 sky130_fd_pr__nfet_01v8 ad=0.084 pd=0.82 as=0.0671 ps=0.75 w=0.42 l=0.15
X146 a_4658_4086# a_3913_4112# a_4794_4112# VSS.t146 sky130_fd_pr__nfet_01v8 ad=0.0864 pd=0.91 as=0.166 ps=1.8 w=0.64 l=0.15
X147 VDD.t194 a_2463_4775# a_3170_4801# VDD.t193 sky130_fd_pr__pfet_01v8_hvt ad=0.149 pd=1.33 as=0.166 ps=1.8 w=0.64 l=0.15
X148 a_7481_5083# a_7073_4801# a_7247_4775# VDD.t289 sky130_fd_pr__pfet_01v8_hvt ad=0.0882 pd=1.05 as=0.123 ps=1.17 w=0.84 l=0.15
X149 a_9237_2340# D[3].t2 VDD.t619 VDD.t618 sky130_fd_pr__pfet_01v8_hvt ad=0.166 pd=1.8 as=0.0864 ps=0.91 w=0.64 l=0.15
X150 VDD.t49 reset.t0 a_621_4112# VDD.t48 sky130_fd_pr__pfet_01v8_hvt ad=0.115 pd=1.08 as=0.205 ps=2.1 w=0.79 l=0.15
X151 a_9173_4112# a_8384_4086# VSS.t185 VSS.t184 sky130_fd_pr__nfet_01v8 ad=0.066 pd=0.745 as=0.0588 ps=0.7 w=0.42 l=0.15
X152 VDD.t118 comparator_out.t3 a_2979_2366# VDD.t117 sky130_fd_pr__pfet_01v8_hvt ad=0.109 pd=1.36 as=0.0662 ps=0.735 w=0.42 l=0.15
X153 VDD.t358 a_11833_2340# a_11766_2732# VDD.t357 sky130_fd_pr__pfet_01v8_hvt ad=0.225 pd=1.38 as=0.174 ps=1.41 w=0.84 l=0.15
X154 VSS.t67 VSS.t65 a_3452_3239# VSS.t66 sky130_fd_pr__nfet_01v8 ad=0.0567 pd=0.69 as=0.109 ps=1.36 w=0.42 l=0.15
X155 VDD.t168 a_9442_4086# a_9375_4478# VDD.t167 sky130_fd_pr__pfet_01v8_hvt ad=0.225 pd=1.38 as=0.174 ps=1.41 w=0.84 l=0.15
X156 VDD.t650 x30.Q_N a_7049_2340# VDD.t649 sky130_fd_pr__pfet_01v8_hvt ad=0.0798 pd=0.8 as=0.147 ps=1.23 w=0.42 l=0.15
X157 a_4317_3521# a_3899_3605# a_4073_3213# VDD.t114 sky130_fd_pr__pfet_01v8_hvt ad=0.113 pd=1.11 as=0.147 ps=1.23 w=0.84 l=0.15
X158 a_6376_5167# a_5845_4801# a_6292_5167# VDD.t391 sky130_fd_pr__pfet_01v8_hvt ad=0.0945 pd=0.87 as=0.0567 ps=0.69 w=0.42 l=0.15
X159 a_3900_5167# a_3453_4801# a_3807_4801# VSS.t493 sky130_fd_pr__nfet_01v8 ad=0.0684 pd=0.74 as=0.066 ps=0.745 w=0.36 l=0.15
X160 VSS.t377 a_8383_2340# x60.Q_N VSS.t376 sky130_fd_pr__nfet_01v8 ad=0.097 pd=0.975 as=0.169 ps=1.82 w=0.65 l=0.15
X161 a_11249_3213# x39.Q_N VDD.t343 VDD.t342 sky130_fd_pr__pfet_01v8_hvt ad=0.147 pd=1.23 as=0.0798 ps=0.8 w=0.42 l=0.15
X162 a_1227_4801# a_1061_4801# VSS.t25 VSS.t24 sky130_fd_pr__nfet_01v8 ad=0.109 pd=1.36 as=0.0567 ps=0.69 w=0.42 l=0.15
X163 a_4074_4775# VDD.t248 VDD.t250 VDD.t249 sky130_fd_pr__pfet_01v8_hvt ad=0.147 pd=1.23 as=0.0798 ps=0.8 w=0.42 l=0.15
X164 a_8997_3239# x42.Q_N VSS.t574 VSS.t573 sky130_fd_pr__nfet_01v8 ad=0.101 pd=0.99 as=0.084 ps=0.82 w=0.42 l=0.15
X165 x5.X.t3 a_1338_5674# VDD.t654 VDD.t653 sky130_fd_pr__pfet_01v8_hvt ad=0.135 pd=1.27 as=0.149 ps=1.33 w=1 l=0.15
X166 a_8591_4801# check[5].t3 VDD.t305 VDD.t304 sky130_fd_pr__pfet_01v8_hvt ad=0.0662 pd=0.735 as=0.109 ps=1.36 w=0.42 l=0.15
X167 a_11289_4394# a_11089_4112# VDD.t1 VDD.t0 sky130_fd_pr__pfet_01v8_hvt ad=0.0882 pd=1.05 as=0.218 ps=2.2 w=0.84 l=0.15
X168 a_1511_4112# x4.A VDD.t303 VDD.t302 sky130_fd_pr__pfet_01v8_hvt ad=0.135 pd=1.27 as=0.26 ps=2.52 w=1 l=0.15
X169 x4.X.t14 a_1511_4112# VSS.t482 VSS.t481 sky130_fd_pr__nfet_01v8 ad=0.0878 pd=0.92 as=0.0878 ps=0.92 w=0.65 l=0.15
X170 x75.Q a_5561_3239# VDD.t123 VDD.t122 sky130_fd_pr__pfet_01v8_hvt ad=0.26 pd=2.52 as=0.149 ps=1.33 w=1 l=0.15
X171 a_11966_4801# a_10629_4801# a_11857_4801# VSS.t265 sky130_fd_pr__nfet_01v8 ad=0.066 pd=0.745 as=0.0711 ps=0.755 w=0.36 l=0.15
X172 a_9376_2366# a_9236_2640# a_8938_2340# VSS.t647 sky130_fd_pr__nfet_01v8 ad=0.0935 pd=0.965 as=0.0711 ps=0.755 w=0.36 l=0.15
X173 eob.t4 a_2389_5648# VSS.t558 VSS.t557 sky130_fd_pr__nfet_01v8 ad=0.0878 pd=0.92 as=0.114 ps=1 w=0.65 l=0.15
X174 a_6781_4112# a_5992_4086# VSS.t568 VSS.t567 sky130_fd_pr__nfet_01v8 ad=0.066 pd=0.745 as=0.0588 ps=0.7 w=0.42 l=0.15
X175 x77.Y eob.t8 VDD.t196 VDD.t195 sky130_fd_pr__pfet_01v8_hvt ad=0.26 pd=2.52 as=0.26 ps=2.52 w=1 l=0.15
X176 a_9237_2340# D[3].t3 VSS.t588 VSS.t587 sky130_fd_pr__nfet_01v8 ad=0.109 pd=1.36 as=0.0567 ps=0.69 w=0.42 l=0.15
X177 a_11715_5083# a_11250_4775# VDD.t154 VDD.t153 sky130_fd_pr__pfet_01v8_hvt ad=0.174 pd=1.41 as=0.225 ps=1.38 w=0.84 l=0.15
X178 x27.Q_N a_4855_4775# VDD.t684 VDD.t683 sky130_fd_pr__pfet_01v8_hvt ad=0.26 pd=2.52 as=0.154 ps=1.34 w=1 l=0.15
X179 a_3984_5167# a_3453_4801# a_3900_5167# VDD.t522 sky130_fd_pr__pfet_01v8_hvt ad=0.0945 pd=0.87 as=0.0567 ps=0.69 w=0.42 l=0.15
X180 a_8791_3239# a_8402_3239# a_8683_3605# VSS.t43 sky130_fd_pr__nfet_01v8 ad=0.0671 pd=0.75 as=0.0684 ps=0.74 w=0.36 l=0.15
X181 a_11089_4112# x4.X.t39 VSS.t502 VSS.t501 sky130_fd_pr__nfet_01v8 ad=0.109 pd=1.36 as=0.097 ps=0.975 w=0.42 l=0.15
X182 a_5991_2340# a_6546_2340# a_6504_2648# VDD.t716 sky130_fd_pr__pfet_01v8_hvt ad=0.123 pd=1.17 as=0.0882 ps=1.05 w=0.84 l=0.15
X183 a_11075_3605# a_10794_3239# a_10982_3239# VDD.t39 sky130_fd_pr__pfet_01v8_hvt ad=0.0567 pd=0.69 as=0.0662 ps=0.735 w=0.42 l=0.15
X184 VDD.t439 check[0].t3 a_5372_4112# VDD.t438 sky130_fd_pr__pfet_01v8_hvt ad=0.109 pd=1.36 as=0.0662 ps=0.735 w=0.42 l=0.15
X185 VDD.t463 a_11629_2340# a_11628_2640# VDD.t462 sky130_fd_pr__pfet_01v8_hvt ad=0.0864 pd=0.91 as=0.166 ps=1.8 w=0.64 l=0.15
X186 a_9638_3213# a_9464_3239# a_9754_3239# VSS.t87 sky130_fd_pr__nfet_01v8 ad=0.0864 pd=0.91 as=0.12 ps=1.08 w=0.64 l=0.15
X187 a_5088_3521# a_4680_3239# a_4854_3213# VDD.t178 sky130_fd_pr__pfet_01v8_hvt ad=0.0882 pd=1.05 as=0.123 ps=1.17 w=0.84 l=0.15
X188 x4.X.t28 a_1511_4112# VDD.t505 VDD.t504 sky130_fd_pr__pfet_01v8_hvt ad=0.135 pd=1.27 as=0.135 ps=1.27 w=1 l=0.15
X189 VDD.t247 VDD.t245 a_9442_4086# VDD.t246 sky130_fd_pr__pfet_01v8_hvt ad=0.0798 pd=0.8 as=0.147 ps=1.23 w=0.42 l=0.15
X190 a_6984_2366# a_6844_2640# a_6546_2340# VSS.t594 sky130_fd_pr__nfet_01v8 ad=0.0935 pd=0.965 as=0.0711 ps=0.755 w=0.36 l=0.15
X191 VDD.t527 x4.X.t40 a_4367_3213# VDD.t526 sky130_fd_pr__pfet_01v8_hvt ad=0.154 pd=1.34 as=0.166 ps=1.8 w=0.64 l=0.15
X192 a_7318_4296# a_6846_4086# a_7562_4478# VDD.t105 sky130_fd_pr__pfet_01v8_hvt ad=0.0567 pd=0.69 as=0.0945 ps=0.87 w=0.42 l=0.15
X193 VSS.t152 a_9441_2340# a_9376_2366# VSS.t151 sky130_fd_pr__nfet_01v8 ad=0.166 pd=1.8 as=0.0935 ps=0.965 w=0.64 l=0.15
X194 a_4318_5083# a_3900_5167# a_4074_4775# VDD.t264 sky130_fd_pr__pfet_01v8_hvt ad=0.113 pd=1.11 as=0.147 ps=1.23 w=0.84 l=0.15
X195 check[4].t1 a_10346_4801# VDD.t291 VDD.t290 sky130_fd_pr__pfet_01v8_hvt ad=0.26 pd=2.52 as=0.149 ps=1.33 w=1 l=0.15
X196 VDD.t503 a_1511_4112# x4.X.t27 VDD.t502 sky130_fd_pr__pfet_01v8_hvt ad=0.135 pd=1.27 as=0.135 ps=1.27 w=1 l=0.15
X197 a_12101_2550# a_11629_2340# a_12345_2732# VDD.t461 sky130_fd_pr__pfet_01v8_hvt ad=0.0567 pd=0.69 as=0.0945 ps=0.87 w=0.42 l=0.15
X198 a_12548_4112# a_11629_4386# a_12102_4296# VDD.t282 sky130_fd_pr__pfet_01v8_hvt ad=0.0662 pd=0.735 as=0.0567 ps=0.69 w=0.42 l=0.15
X199 VSS.t422 x5.X.t6 a_3453_4801# VSS.t421 sky130_fd_pr__nfet_01v8 ad=0.0567 pd=0.69 as=0.109 ps=1.36 w=0.42 l=0.15
X200 a_11250_4775# VDD.t230 VDD.t232 VDD.t231 sky130_fd_pr__pfet_01v8_hvt ad=0.147 pd=1.23 as=0.0798 ps=0.8 w=0.42 l=0.15
X201 a_4453_2340# D[5].t2 VDD.t676 VDD.t675 sky130_fd_pr__pfet_01v8_hvt ad=0.166 pd=1.8 as=0.0864 ps=0.91 w=0.64 l=0.15
X202 a_3373_5674# a_3258_5648# a_2389_5648# VDD.t52 sky130_fd_pr__pfet_01v8_hvt ad=0.14 pd=1.6 as=0.0729 ps=0.81 w=0.54 l=0.15
X203 VSS.t444 x4.X.t41 a_6759_3213# VSS.t443 sky130_fd_pr__nfet_01v8 ad=0.097 pd=0.975 as=0.109 ps=1.36 w=0.42 l=0.15
X204 VSS.t172 reset.t1 a_621_4112# VSS.t171 sky130_fd_pr__nfet_01v8 ad=0.0754 pd=0.81 as=0.135 ps=1.56 w=0.52 l=0.15
X205 a_1762_2340# a_2061_2340# a_1996_2366# VSS.t673 sky130_fd_pr__nfet_01v8 ad=0.0711 pd=0.755 as=0.066 ps=0.745 w=0.36 l=0.15
X206 a_9550_3605# a_8402_3239# a_9464_3239# VDD.t51 sky130_fd_pr__pfet_01v8_hvt ad=0.0924 pd=0.86 as=0.0567 ps=0.69 w=0.42 l=0.15
X207 a_8998_4801# VDD.t729 VSS.t238 VSS.t237 sky130_fd_pr__nfet_01v8 ad=0.101 pd=0.99 as=0.084 ps=0.82 w=0.42 l=0.15
X208 x4.X.t13 a_1511_4112# VSS.t480 VSS.t479 sky130_fd_pr__nfet_01v8 ad=0.0878 pd=0.92 as=0.0878 ps=0.92 w=0.65 l=0.15
X209 a_7049_2340# a_7317_2550# a_7263_2648# VDD.t201 sky130_fd_pr__pfet_01v8_hvt ad=0.147 pd=1.23 as=0.113 ps=1.11 w=0.84 l=0.15
X210 a_6198_3239# comparator_out.t4 VDD.t451 VDD.t450 sky130_fd_pr__pfet_01v8_hvt ad=0.0662 pd=0.735 as=0.109 ps=1.36 w=0.42 l=0.15
X211 VSS.t428 comparator_out.t5 a_7763_2366# VSS.t427 sky130_fd_pr__nfet_01v8 ad=0.109 pd=1.36 as=0.066 ps=0.745 w=0.42 l=0.15
X212 a_2398_4801# a_1061_4801# a_2289_4801# VSS.t23 sky130_fd_pr__nfet_01v8 ad=0.066 pd=0.745 as=0.0711 ps=0.755 w=0.36 l=0.15
X213 VSS.t440 a_11629_2340# a_11628_2640# VSS.t439 sky130_fd_pr__nfet_01v8 ad=0.0567 pd=0.69 as=0.109 ps=1.36 w=0.42 l=0.15
X214 VDD.t288 a_6759_3213# a_7480_3521# VDD.t287 sky130_fd_pr__pfet_01v8_hvt ad=0.218 pd=2.2 as=0.0882 ps=1.05 w=0.84 l=0.15
X215 a_3877_5674# a_2853_5648# a_3373_5674# VSS.t406 sky130_fd_pr__nfet_01v8 ad=0.066 pd=0.745 as=0.072 ps=0.76 w=0.36 l=0.15
X216 a_9656_4394# a_8697_4112# VDD.t113 VDD.t112 sky130_fd_pr__pfet_01v8_hvt ad=0.113 pd=1.11 as=0.225 ps=1.38 w=0.84 l=0.15
X217 a_7185_2366# a_7317_2550# a_7049_2340# VSS.t207 sky130_fd_pr__nfet_01v8 ad=0.101 pd=0.99 as=0.0864 ps=0.91 w=0.64 l=0.15
X218 a_10155_2366# a_9237_2340# a_9709_2550# VSS.t15 sky130_fd_pr__nfet_01v8 ad=0.066 pd=0.745 as=0.0684 ps=0.74 w=0.36 l=0.15
X219 a_1926_5083# a_1508_5167# a_1682_4775# VDD.t124 sky130_fd_pr__pfet_01v8_hvt ad=0.113 pd=1.11 as=0.147 ps=1.23 w=0.84 l=0.15
X220 a_9370_4801# a_8858_4775# VSS.t401 VSS.t400 sky130_fd_pr__nfet_01v8 ad=0.0935 pd=0.965 as=0.166 ps=1.8 w=0.64 l=0.15
X221 a_3504_2340# a_3599_2340# VDD.t710 VDD.t709 sky130_fd_pr__pfet_01v8_hvt ad=0.166 pd=1.8 as=0.149 ps=1.33 w=0.64 l=0.15
X222 VDD.t244 VDD.t242 a_11834_4086# VDD.t243 sky130_fd_pr__pfet_01v8_hvt ad=0.0798 pd=0.8 as=0.147 ps=1.23 w=0.42 l=0.15
X223 a_11076_5167# a_10795_4801# a_10983_4801# VDD.t88 sky130_fd_pr__pfet_01v8_hvt ad=0.0567 pd=0.69 as=0.0662 ps=0.735 w=0.42 l=0.15
X224 a_8792_4801# a_8403_4801# a_8684_5167# VSS.t591 sky130_fd_pr__nfet_01v8 ad=0.0671 pd=0.75 as=0.0684 ps=0.74 w=0.36 l=0.15
X225 a_5089_5083# a_4681_4801# a_4855_4775# VDD.t127 sky130_fd_pr__pfet_01v8_hvt ad=0.0882 pd=1.05 as=0.123 ps=1.17 w=0.84 l=0.15
X226 x4.X.t12 a_1511_4112# VSS.t478 VSS.t477 sky130_fd_pr__nfet_01v8 ad=0.0878 pd=0.92 as=0.0878 ps=0.92 w=0.65 l=0.15
X227 VDD.t724 a_2061_2340# a_2060_2640# VDD.t723 sky130_fd_pr__pfet_01v8_hvt ad=0.0864 pd=0.91 as=0.166 ps=1.8 w=0.64 l=0.15
X228 a_3671_5674# x48.Q VSS.t89 VSS.t88 sky130_fd_pr__nfet_01v8 ad=0.0671 pd=0.75 as=0.0819 ps=0.81 w=0.42 l=0.15
X229 a_4453_2340# D[5].t3 VSS.t627 VSS.t626 sky130_fd_pr__nfet_01v8 ad=0.109 pd=1.36 as=0.0567 ps=0.69 w=0.42 l=0.15
X230 a_4657_2340# a_4925_2550# a_4871_2648# VDD.t437 sky130_fd_pr__pfet_01v8_hvt ad=0.147 pd=1.23 as=0.113 ps=1.11 w=0.84 l=0.15
X231 a_3806_3239# VSS.t675 VDD.t284 VDD.t283 sky130_fd_pr__pfet_01v8_hvt ad=0.0662 pd=0.735 as=0.109 ps=1.36 w=0.42 l=0.15
X232 a_9639_4775# a_9465_4801# a_9755_4801# VSS.t655 sky130_fd_pr__nfet_01v8 ad=0.0864 pd=0.91 as=0.12 ps=1.08 w=0.64 l=0.15
X233 VDD.t617 a_12030_3213# a_12737_3239# VDD.t616 sky130_fd_pr__pfet_01v8_hvt ad=0.149 pd=1.33 as=0.166 ps=1.8 w=0.64 l=0.15
X234 a_4970_3239# a_4367_3213# a_4854_3213# VSS.t532 sky130_fd_pr__nfet_01v8 ad=0.166 pd=1.8 as=0.0864 ps=0.91 w=0.64 l=0.15
X235 a_8857_3213# a_8683_3605# a_8997_3239# VSS.t508 sky130_fd_pr__nfet_01v8 ad=0.0864 pd=0.91 as=0.101 ps=0.99 w=0.64 l=0.15
X236 a_3600_4086# a_4155_4086# a_4113_4394# VDD.t171 sky130_fd_pr__pfet_01v8_hvt ad=0.123 pd=1.17 as=0.0882 ps=1.05 w=0.84 l=0.15
X237 a_8383_2340# a_8696_2366# a_8802_2366# VSS.t31 sky130_fd_pr__nfet_01v8 ad=0.0864 pd=0.91 as=0.166 ps=1.8 w=0.64 l=0.15
X238 VDD.t532 a_6465_3213# a_6375_3605# VDD.t531 sky130_fd_pr__pfet_01v8_hvt ad=0.0798 pd=0.8 as=0.0945 ps=0.87 w=0.42 l=0.15
X239 VSS.t58 check[0].t4 a_3877_5674# VSS.t57 sky130_fd_pr__nfet_01v8 ad=0.0567 pd=0.69 as=0.066 ps=0.745 w=0.42 l=0.15
X240 VSS.t200 a_2463_4775# a_2398_4801# VSS.t199 sky130_fd_pr__nfet_01v8 ad=0.0588 pd=0.7 as=0.066 ps=0.745 w=0.42 l=0.15