* NGSPICE file created from hgu_sarlogic_8bit_logic_flat.ext - technology: sky130A

.subckt hgu_sarlogic_8bit_logic_flat sel_bit[0] sel_bit[1] reset eob comparator_out
+ D[7] D[5] check[0] check[5] check[1] check[4] check[2] check[3] D[2] D[1] D[4] D[0]
+ clk_sar D[6] D[3] check[6] VSS VDD
X0 VDD a_10680_2340# D[3] VDD sky130_fd_pr__pfet_01v8_hvt ad=0.149 pd=1.33 as=0.26 ps=2.52 w=1 l=0.15
X1 VDD a_8289_4086# check[1] VDD sky130_fd_pr__pfet_01v8_hvt ad=0.149 pd=1.33 as=0.26 ps=2.52 w=1 l=0.15
X2 VDD D[0] a_8236_3239# VDD sky130_fd_pr__pfet_01v8_hvt ad=0.0864 pd=0.91 as=0.166 ps=1.8 w=0.64 l=0.15
X3 VDD a_2389_5648# eob VDD sky130_fd_pr__pfet_01v8_hvt ad=0.154 pd=1.34 as=0.135 ps=1.27 w=1 l=0.15
X4 a_12030_3213# a_11856_3239# a_12146_3239# VSS sky130_fd_pr__nfet_01v8 ad=0.0864 pd=0.91 as=0.12 ps=1.08 w=0.64 l=0.15
X5 a_4971_4801# VDD VSS VSS sky130_fd_pr__nfet_01v8 ad=0.12 pd=1.08 as=0.0588 ps=0.7 w=0.42 l=0.15
X6 a_2147_5083# a_1682_4775# VDD VDD sky130_fd_pr__pfet_01v8_hvt ad=0.174 pd=1.41 as=0.225 ps=1.38 w=0.84 l=0.15
X7 a_1822_4801# x4.X VSS VSS sky130_fd_pr__nfet_01v8 ad=0.101 pd=0.99 as=0.084 ps=0.82 w=0.42 l=0.15
X8 a_11330_2340# a_11628_2640# a_11564_2732# VDD sky130_fd_pr__pfet_01v8_hvt ad=0.0567 pd=0.69 as=0.0924 ps=0.86 w=0.42 l=0.15
X9 VSS a_12030_3213# a_12737_3239# VSS sky130_fd_pr__nfet_01v8 ad=0.097 pd=0.975 as=0.109 ps=1.36 w=0.42 l=0.15
X10 a_4213_3239# a_4367_3213# a_4073_3213# VSS sky130_fd_pr__nfet_01v8 ad=0.166 pd=1.8 as=0.0864 ps=0.91 w=0.64 l=0.15
X11 a_8591_4801# check[5] VSS VSS sky130_fd_pr__nfet_01v8 ad=0.066 pd=0.745 as=0.109 ps=1.36 w=0.42 l=0.15
X12 a_9710_4296# a_9238_4086# a_9954_4478# VDD sky130_fd_pr__pfet_01v8_hvt ad=0.0567 pd=0.69 as=0.0945 ps=0.87 w=0.42 l=0.15
X13 VSS x30.Q_N a_7185_2366# VSS sky130_fd_pr__nfet_01v8 ad=0.084 pd=0.82 as=0.101 ps=0.99 w=0.42 l=0.15
X14 VDD a_11250_4775# a_11160_5167# VDD sky130_fd_pr__pfet_01v8_hvt ad=0.0798 pd=0.8 as=0.0945 ps=0.87 w=0.42 l=0.15
X15 VSS a_5992_4086# x45.Q_N VSS sky130_fd_pr__nfet_01v8 ad=0.097 pd=0.975 as=0.169 ps=1.82 w=0.65 l=0.15
X16 a_3599_2340# a_3912_2366# a_4018_2366# VSS sky130_fd_pr__nfet_01v8 ad=0.0864 pd=0.91 as=0.166 ps=1.8 w=0.64 l=0.15
X17 x72.Q_N a_7246_3213# VSS VSS sky130_fd_pr__nfet_01v8 ad=0.169 pd=1.82 as=0.097 ps=0.975 w=0.65 l=0.15
X18 VSS x27.Q_N a_4018_2366# VSS sky130_fd_pr__nfet_01v8 ad=0.0588 pd=0.7 as=0.12 ps=1.08 w=0.42 l=0.15
X19 a_4854_3213# x77.Y VDD VDD sky130_fd_pr__pfet_01v8_hvt ad=0.123 pd=1.17 as=0.0819 ps=0.81 w=0.42 l=0.15
X20 a_7072_3239# a_5844_3239# a_6930_3521# VDD sky130_fd_pr__pfet_01v8_hvt ad=0.0567 pd=0.69 as=0.174 ps=1.41 w=0.42 l=0.15
X21 a_9442_4086# a_8697_4112# a_9578_4112# VSS sky130_fd_pr__nfet_01v8 ad=0.0864 pd=0.91 as=0.166 ps=1.8 w=0.64 l=0.15
X22 VSS x4.X a_9151_3213# VSS sky130_fd_pr__nfet_01v8 ad=0.097 pd=0.975 as=0.109 ps=1.36 w=0.42 l=0.15
X23 VDD a_7246_3213# a_7158_3605# VDD sky130_fd_pr__pfet_01v8_hvt ad=0.0819 pd=0.81 as=0.0924 ps=0.86 w=0.42 l=0.15
X24 VDD a_5897_4086# check[0] VDD sky130_fd_pr__pfet_01v8_hvt ad=0.149 pd=1.33 as=0.26 ps=2.52 w=1 l=0.15
X25 a_11089_4112# x4.X VDD VDD sky130_fd_pr__pfet_01v8_hvt ad=0.166 pd=1.8 as=0.154 ps=1.34 w=0.64 l=0.15
X26 a_4793_2366# a_4925_2550# a_4657_2340# VSS sky130_fd_pr__nfet_01v8 ad=0.101 pd=0.99 as=0.0864 ps=0.91 w=0.64 l=0.15
X27 VDD x75.Q a_5844_3239# VDD sky130_fd_pr__pfet_01v8_hvt ad=0.0864 pd=0.91 as=0.166 ps=1.8 w=0.64 l=0.15
X28 a_6978_4801# a_6466_4775# VSS VSS sky130_fd_pr__nfet_01v8 ad=0.0935 pd=0.965 as=0.166 ps=1.8 w=0.64 l=0.15
X29 a_4388_2732# a_3599_2340# VDD VDD sky130_fd_pr__pfet_01v8_hvt ad=0.0924 pd=0.86 as=0.0819 ps=0.81 w=0.42 l=0.15
X30 a_2788_5674# check[2] VSS VSS sky130_fd_pr__nfet_01v8 ad=0.066 pd=0.745 as=0.107 ps=1 w=0.42 l=0.15
X31 a_10794_3239# a_10628_3239# VDD VDD sky130_fd_pr__pfet_01v8_hvt ad=0.166 pd=1.8 as=0.0864 ps=0.91 w=0.64 l=0.15
X32 VSS D[0] a_8236_3239# VSS sky130_fd_pr__nfet_01v8 ad=0.0567 pd=0.69 as=0.109 ps=1.36 w=0.42 l=0.15
X33 VDD x4.X a_4368_4775# VDD sky130_fd_pr__pfet_01v8_hvt ad=0.154 pd=1.34 as=0.166 ps=1.8 w=0.64 l=0.15
X34 a_9465_4801# a_8403_4801# a_9370_4801# VSS sky130_fd_pr__nfet_01v8 ad=0.0711 pd=0.755 as=0.0935 ps=0.965 w=0.36 l=0.15
X35 VSS a_1511_4112# x4.X VSS sky130_fd_pr__nfet_01v8 ad=0.0878 pd=0.92 as=0.0878 ps=0.92 w=0.65 l=0.15
X36 a_12048_4394# a_11089_4112# VDD VDD sky130_fd_pr__pfet_01v8_hvt ad=0.113 pd=1.11 as=0.225 ps=1.38 w=0.84 l=0.15
X37 a_9101_3521# a_8683_3605# a_8857_3213# VDD sky130_fd_pr__pfet_01v8_hvt ad=0.113 pd=1.11 as=0.147 ps=1.23 w=0.84 l=0.15
X38 a_7247_4775# VDD VDD VDD sky130_fd_pr__pfet_01v8_hvt ad=0.123 pd=1.17 as=0.0819 ps=0.81 w=0.42 l=0.15
X39 VDD a_6846_4086# a_6845_4386# VDD sky130_fd_pr__pfet_01v8_hvt ad=0.0864 pd=0.91 as=0.166 ps=1.8 w=0.64 l=0.15
X40 VSS x20.Q_N a_1626_2366# VSS sky130_fd_pr__nfet_01v8 ad=0.0588 pd=0.7 as=0.12 ps=1.08 w=0.42 l=0.15
X41 D[2] a_12737_3239# VSS VSS sky130_fd_pr__nfet_01v8 ad=0.169 pd=1.82 as=0.097 ps=0.975 w=0.65 l=0.15
X42 a_11250_4775# a_11076_5167# a_11390_4801# VSS sky130_fd_pr__nfet_01v8 ad=0.0864 pd=0.91 as=0.101 ps=0.99 w=0.64 l=0.15
X43 a_4680_3239# a_3452_3239# a_4538_3521# VDD sky130_fd_pr__pfet_01v8_hvt ad=0.0567 pd=0.69 as=0.174 ps=1.41 w=0.42 l=0.15
X44 a_2479_2648# a_1520_2366# VDD VDD sky130_fd_pr__pfet_01v8_hvt ad=0.113 pd=1.11 as=0.225 ps=1.38 w=0.84 l=0.15
X45 VDD a_4854_3213# a_4766_3605# VDD sky130_fd_pr__pfet_01v8_hvt ad=0.0819 pd=0.81 as=0.0924 ps=0.86 w=0.42 l=0.15
X46 a_11184_4801# a_10795_4801# a_11076_5167# VSS sky130_fd_pr__nfet_01v8 ad=0.0671 pd=0.75 as=0.0684 ps=0.74 w=0.36 l=0.15
X47 VSS a_1338_5674# x5.X VSS sky130_fd_pr__nfet_01v8 ad=0.172 pd=1.83 as=0.0878 ps=0.92 w=0.65 l=0.15
X48 a_2784_5996# check[2] VDD VDD sky130_fd_pr__pfet_01v8_hvt ad=0.105 pd=0.995 as=0.154 ps=1.34 w=0.64 l=0.15
X49 a_4593_4112# a_4453_4386# a_4155_4086# VSS sky130_fd_pr__nfet_01v8 ad=0.0935 pd=0.965 as=0.0711 ps=0.755 w=0.36 l=0.15
X50 a_1996_2732# a_1207_2340# VDD VDD sky130_fd_pr__pfet_01v8_hvt ad=0.0924 pd=0.86 as=0.0819 ps=0.81 w=0.42 l=0.15
X51 a_7181_3239# a_5844_3239# a_7072_3239# VSS sky130_fd_pr__nfet_01v8 ad=0.066 pd=0.745 as=0.0711 ps=0.755 w=0.36 l=0.15
X52 a_6198_3239# comparator_out VSS VSS sky130_fd_pr__nfet_01v8 ad=0.066 pd=0.745 as=0.109 ps=1.36 w=0.42 l=0.15
X53 x4.X a_1511_4112# VDD VDD sky130_fd_pr__pfet_01v8_hvt ad=0.135 pd=1.27 as=0.135 ps=1.27 w=1 l=0.15
X54 a_2265_2340# a_1520_2366# a_2401_2366# VSS sky130_fd_pr__nfet_01v8 ad=0.0864 pd=0.91 as=0.166 ps=1.8 w=0.64 l=0.15
X55 a_12031_4775# a_11857_4801# a_12147_4801# VSS sky130_fd_pr__nfet_01v8 ad=0.0864 pd=0.91 as=0.12 ps=1.08 w=0.64 l=0.15
X56 VSS x75.Q a_5844_3239# VSS sky130_fd_pr__nfet_01v8 ad=0.0567 pd=0.69 as=0.109 ps=1.36 w=0.42 l=0.15
X57 VDD VDD a_1976_4775# VDD sky130_fd_pr__pfet_01v8_hvt ad=0.154 pd=1.34 as=0.166 ps=1.8 w=0.64 l=0.15
X58 VSS a_7050_4086# a_6985_4112# VSS sky130_fd_pr__nfet_01v8 ad=0.166 pd=1.8 as=0.0935 ps=0.965 w=0.64 l=0.15
X59 a_1762_2340# a_2060_2640# a_1996_2732# VDD sky130_fd_pr__pfet_01v8_hvt ad=0.0567 pd=0.69 as=0.0924 ps=0.86 w=0.42 l=0.15
X60 VDD check[1] a_2969_6040# VDD sky130_fd_pr__pfet_01v8_hvt ad=0.166 pd=1.8 as=0.138 ps=1.16 w=0.64 l=0.15
X61 a_2883_5674# a_2853_5648# a_2788_5674# VSS sky130_fd_pr__nfet_01v8 ad=0.072 pd=0.76 as=0.066 ps=0.745 w=0.36 l=0.15
X62 a_7562_4478# a_7050_4086# VDD VDD sky130_fd_pr__pfet_01v8_hvt ad=0.0945 pd=0.87 as=0.0798 ps=0.8 w=0.42 l=0.15
X63 a_10775_2340# a_11088_2366# a_11194_2366# VSS sky130_fd_pr__nfet_01v8 ad=0.0864 pd=0.91 as=0.166 ps=1.8 w=0.64 l=0.15
X64 a_6504_2648# a_6304_2366# VDD VDD sky130_fd_pr__pfet_01v8_hvt ad=0.0882 pd=1.05 as=0.218 ps=2.2 w=0.84 l=0.15
X65 a_4214_4801# a_4368_4775# a_4074_4775# VSS sky130_fd_pr__nfet_01v8 ad=0.166 pd=1.8 as=0.0864 ps=0.91 w=0.64 l=0.15
X66 VSS x36.Q_N a_11194_2366# VSS sky130_fd_pr__nfet_01v8 ad=0.0588 pd=0.7 as=0.12 ps=1.08 w=0.42 l=0.15
X67 a_10794_3239# a_10628_3239# VSS VSS sky130_fd_pr__nfet_01v8 ad=0.109 pd=1.36 as=0.0567 ps=0.69 w=0.42 l=0.15
X68 a_1511_4112# x4.A VSS VSS sky130_fd_pr__nfet_01v8 ad=0.0878 pd=0.92 as=0.0878 ps=0.92 w=0.65 l=0.15
X69 a_4855_4775# VDD VDD VDD sky130_fd_pr__pfet_01v8_hvt ad=0.123 pd=1.17 as=0.0819 ps=0.81 w=0.42 l=0.15
X70 a_7073_4801# a_5845_4801# a_6931_5083# VDD sky130_fd_pr__pfet_01v8_hvt ad=0.0567 pd=0.69 as=0.174 ps=1.41 w=0.42 l=0.15
X71 VDD a_4454_4086# a_4453_4386# VDD sky130_fd_pr__pfet_01v8_hvt ad=0.0864 pd=0.91 as=0.166 ps=1.8 w=0.64 l=0.15
X72 VDD a_7247_4775# a_7159_5167# VDD sky130_fd_pr__pfet_01v8_hvt ad=0.0819 pd=0.81 as=0.0924 ps=0.86 w=0.42 l=0.15
X73 x4.A a_897_4112# VDD VDD sky130_fd_pr__pfet_01v8_hvt ad=0.135 pd=1.27 as=0.135 ps=1.27 w=1 l=0.15
X74 x30.Q_N a_7247_4775# VSS VSS sky130_fd_pr__nfet_01v8 ad=0.169 pd=1.82 as=0.097 ps=0.975 w=0.65 l=0.15
X75 x4.X a_1511_4112# VDD VDD sky130_fd_pr__pfet_01v8_hvt ad=0.135 pd=1.27 as=0.135 ps=1.27 w=1 l=0.15
X76 a_12345_2732# a_11833_2340# VDD VDD sky130_fd_pr__pfet_01v8_hvt ad=0.0945 pd=0.87 as=0.0798 ps=0.8 w=0.42 l=0.15
X77 VSS check[0] a_5372_4112# VSS sky130_fd_pr__nfet_01v8 ad=0.109 pd=1.36 as=0.066 ps=0.745 w=0.42 l=0.15
X78 a_8803_4112# a_8939_4086# a_8384_4086# VSS sky130_fd_pr__nfet_01v8 ad=0.12 pd=1.08 as=0.0864 ps=0.91 w=0.64 l=0.15
X79 VSS x4.X a_9152_4775# VSS sky130_fd_pr__nfet_01v8 ad=0.097 pd=0.975 as=0.109 ps=1.36 w=0.42 l=0.15
X80 a_3806_3239# VSS VSS VSS sky130_fd_pr__nfet_01v8 ad=0.066 pd=0.745 as=0.109 ps=1.36 w=0.42 l=0.15
X81 VDD x20.Q_N a_1207_2340# VDD sky130_fd_pr__pfet_01v8_hvt ad=0.0819 pd=0.81 as=0.123 ps=1.17 w=0.42 l=0.15
X82 VSS check[1] a_2993_5674# VSS sky130_fd_pr__nfet_01v8 ad=0.109 pd=1.36 as=0.0786 ps=0.805 w=0.42 l=0.15
X83 VSS VDD a_8803_4112# VSS sky130_fd_pr__nfet_01v8 ad=0.0588 pd=0.7 as=0.12 ps=1.08 w=0.42 l=0.15
X84 VSS a_10776_4086# x39.Q_N VSS sky130_fd_pr__nfet_01v8 ad=0.097 pd=0.975 as=0.169 ps=1.82 w=0.65 l=0.15
X85 a_6291_3605# a_5844_3239# a_6198_3239# VSS sky130_fd_pr__nfet_01v8 ad=0.0684 pd=0.74 as=0.066 ps=0.745 w=0.36 l=0.15
X86 x75.Q_N a_4854_3213# VDD VDD sky130_fd_pr__pfet_01v8_hvt ad=0.26 pd=2.52 as=0.154 ps=1.34 w=1 l=0.15
X87 VSS x5.X a_8237_4801# VSS sky130_fd_pr__nfet_01v8 ad=0.0567 pd=0.69 as=0.109 ps=1.36 w=0.42 l=0.15
X88 VSS a_6465_3213# a_6399_3239# VSS sky130_fd_pr__nfet_01v8 ad=0.084 pd=0.82 as=0.0671 ps=0.75 w=0.42 l=0.15
X89 a_1822_4801# a_1976_4775# a_1682_4775# VSS sky130_fd_pr__nfet_01v8 ad=0.166 pd=1.8 as=0.0864 ps=0.91 w=0.64 l=0.15
X90 VDD a_10775_2340# x63.Q_N VDD sky130_fd_pr__pfet_01v8_hvt ad=0.154 pd=1.34 as=0.26 ps=2.52 w=1 l=0.15
X91 a_9102_5083# a_8684_5167# a_8858_4775# VDD sky130_fd_pr__pfet_01v8_hvt ad=0.113 pd=1.11 as=0.147 ps=1.23 w=0.84 l=0.15
X92 a_11856_3239# a_10628_3239# a_11714_3521# VDD sky130_fd_pr__pfet_01v8_hvt ad=0.0567 pd=0.69 as=0.174 ps=1.41 w=0.42 l=0.15
X93 a_4681_4801# a_3453_4801# a_4539_5083# VDD sky130_fd_pr__pfet_01v8_hvt ad=0.0567 pd=0.69 as=0.174 ps=1.41 w=0.42 l=0.15
X94 VDD a_4855_4775# a_4767_5167# VDD sky130_fd_pr__pfet_01v8_hvt ad=0.0819 pd=0.81 as=0.0924 ps=0.86 w=0.42 l=0.15
X95 a_9953_2366# a_9441_2340# VSS VSS sky130_fd_pr__nfet_01v8 ad=0.0671 pd=0.75 as=0.084 ps=0.82 w=0.42 l=0.15
X96 check[3] a_12738_4801# VSS VSS sky130_fd_pr__nfet_01v8 ad=0.169 pd=1.82 as=0.097 ps=0.975 w=0.65 l=0.15
X97 a_1112_2340# a_1207_2340# VSS VSS sky130_fd_pr__nfet_01v8 ad=0.109 pd=1.36 as=0.097 ps=0.975 w=0.42 l=0.15
X98 a_11769_4112# a_11629_4386# a_11331_4086# VSS sky130_fd_pr__nfet_01v8 ad=0.0935 pd=0.965 as=0.0711 ps=0.755 w=0.36 l=0.15
X99 a_2579_4801# x4.X VSS VSS sky130_fd_pr__nfet_01v8 ad=0.12 pd=1.08 as=0.0588 ps=0.7 w=0.42 l=0.15
X100 a_4155_4086# a_4453_4386# a_4389_4478# VDD sky130_fd_pr__pfet_01v8_hvt ad=0.0567 pd=0.69 as=0.0924 ps=0.86 w=0.42 l=0.15
X101 a_7480_3521# a_7072_3239# a_7246_3213# VDD sky130_fd_pr__pfet_01v8_hvt ad=0.0882 pd=1.05 as=0.123 ps=1.17 w=0.84 l=0.15
X102 VSS VDD a_9578_4112# VSS sky130_fd_pr__nfet_01v8 ad=0.084 pd=0.82 as=0.101 ps=0.99 w=0.42 l=0.15
X103 a_5992_4086# a_6305_4112# a_6411_4112# VSS sky130_fd_pr__nfet_01v8 ad=0.0864 pd=0.91 as=0.166 ps=1.8 w=0.64 l=0.15
X104 VDD comparator_out a_12547_2366# VDD sky130_fd_pr__pfet_01v8_hvt ad=0.109 pd=1.36 as=0.0662 ps=0.735 w=0.42 l=0.15
X105 a_6199_4801# check[6] VSS VSS sky130_fd_pr__nfet_01v8 ad=0.066 pd=0.745 as=0.109 ps=1.36 w=0.42 l=0.15
X106 a_7182_4801# a_5845_4801# a_7073_4801# VSS sky130_fd_pr__nfet_01v8 ad=0.066 pd=0.745 as=0.0711 ps=0.755 w=0.36 l=0.15
X107 VSS VDD a_6411_4112# VSS sky130_fd_pr__nfet_01v8 ad=0.0588 pd=0.7 as=0.12 ps=1.08 w=0.42 l=0.15
X108 VDD x4.X a_6759_3213# VDD sky130_fd_pr__pfet_01v8_hvt ad=0.154 pd=1.34 as=0.166 ps=1.8 w=0.64 l=0.15
X109 x33.Q_N a_9639_4775# VSS VSS sky130_fd_pr__nfet_01v8 ad=0.169 pd=1.82 as=0.097 ps=0.975 w=0.65 l=0.15
X110 VSS x27.Q_N a_4793_2366# VSS sky130_fd_pr__nfet_01v8 ad=0.084 pd=0.82 as=0.101 ps=0.99 w=0.42 l=0.15
X111 a_3899_3605# a_3452_3239# a_3806_3239# VSS sky130_fd_pr__nfet_01v8 ad=0.0684 pd=0.74 as=0.066 ps=0.745 w=0.36 l=0.15
X112 VSS x5.X a_5845_4801# VSS sky130_fd_pr__nfet_01v8 ad=0.0567 pd=0.69 as=0.109 ps=1.36 w=0.42 l=0.15
X113 D[1] a_10345_3239# VDD VDD sky130_fd_pr__pfet_01v8_hvt ad=0.26 pd=2.52 as=0.149 ps=1.33 w=1 l=0.15
X114 a_6710_5083# a_6292_5167# a_6466_4775# VDD sky130_fd_pr__pfet_01v8_hvt ad=0.113 pd=1.11 as=0.147 ps=1.23 w=0.84 l=0.15
X115 a_11195_4112# a_11331_4086# a_10776_4086# VSS sky130_fd_pr__nfet_01v8 ad=0.12 pd=1.08 as=0.0864 ps=0.91 w=0.64 l=0.15
X116 a_6375_3605# a_5844_3239# a_6291_3605# VDD sky130_fd_pr__pfet_01v8_hvt ad=0.0945 pd=0.87 as=0.0567 ps=0.69 w=0.42 l=0.15
X117 a_2969_6040# a_2853_5648# a_2883_5674# VDD sky130_fd_pr__pfet_01v8_hvt ad=0.138 pd=1.16 as=0.0567 ps=0.69 w=0.42 l=0.15
X118 a_8288_2340# a_8383_2340# VDD VDD sky130_fd_pr__pfet_01v8_hvt ad=0.166 pd=1.8 as=0.149 ps=1.33 w=0.64 l=0.15
X119 a_10795_4801# a_10629_4801# VSS VSS sky130_fd_pr__nfet_01v8 ad=0.109 pd=1.36 as=0.0567 ps=0.69 w=0.42 l=0.15
X120 a_7050_4086# a_6305_4112# a_7186_4112# VSS sky130_fd_pr__nfet_01v8 ad=0.0864 pd=0.91 as=0.166 ps=1.8 w=0.64 l=0.15
X121 a_11965_3239# a_10628_3239# a_11856_3239# VSS sky130_fd_pr__nfet_01v8 ad=0.066 pd=0.745 as=0.0711 ps=0.755 w=0.36 l=0.15
X122 a_12102_4296# a_11629_4386# a_12346_4112# VSS sky130_fd_pr__nfet_01v8 ad=0.0684 pd=0.74 as=0.0671 ps=0.75 w=0.36 l=0.15
X123 VSS a_2463_4775# a_3170_4801# VSS sky130_fd_pr__nfet_01v8 ad=0.097 pd=0.975 as=0.109 ps=1.36 w=0.42 l=0.15
X124 a_11970_4112# a_12102_4296# a_11834_4086# VSS sky130_fd_pr__nfet_01v8 ad=0.101 pd=0.99 as=0.0864 ps=0.91 w=0.64 l=0.15
X125 VDD a_3505_4086# x48.Q VDD sky130_fd_pr__pfet_01v8_hvt ad=0.149 pd=1.33 as=0.26 ps=2.52 w=1 l=0.15
X126 a_8590_3239# comparator_out VDD VDD sky130_fd_pr__pfet_01v8_hvt ad=0.0662 pd=0.735 as=0.109 ps=1.36 w=0.42 l=0.15
X127 VDD VSS a_3452_3239# VDD sky130_fd_pr__pfet_01v8_hvt ad=0.0864 pd=0.91 as=0.166 ps=1.8 w=0.64 l=0.15
X128 x4.X a_1511_4112# VDD VDD sky130_fd_pr__pfet_01v8_hvt ad=0.135 pd=1.27 as=0.135 ps=1.27 w=1 l=0.15
X129 a_4113_4394# a_3913_4112# VDD VDD sky130_fd_pr__pfet_01v8_hvt ad=0.0882 pd=1.05 as=0.218 ps=2.2 w=0.84 l=0.15
X130 VSS a_11834_4086# a_11769_4112# VSS sky130_fd_pr__nfet_01v8 ad=0.166 pd=1.8 as=0.0935 ps=0.965 w=0.64 l=0.15
X131 a_3807_4801# x27.D VSS VSS sky130_fd_pr__nfet_01v8 ad=0.066 pd=0.745 as=0.109 ps=1.36 w=0.42 l=0.15
X132 a_4790_4801# a_3453_4801# a_4681_4801# VSS sky130_fd_pr__nfet_01v8 ad=0.066 pd=0.745 as=0.0711 ps=0.755 w=0.36 l=0.15
X133 VSS x20.Q_N a_2401_2366# VSS sky130_fd_pr__nfet_01v8 ad=0.084 pd=0.82 as=0.101 ps=0.99 w=0.42 l=0.15
X134 a_1511_4112# x4.A VSS VSS sky130_fd_pr__nfet_01v8 ad=0.0878 pd=0.92 as=0.0878 ps=0.92 w=0.65 l=0.15
X135 a_11564_2366# a_10775_2340# VSS VSS sky130_fd_pr__nfet_01v8 ad=0.066 pd=0.745 as=0.0588 ps=0.7 w=0.42 l=0.15
X136 a_7763_2366# a_6844_2640# a_7317_2550# VDD sky130_fd_pr__pfet_01v8_hvt ad=0.0662 pd=0.735 as=0.0567 ps=0.69 w=0.42 l=0.15
X137 a_11714_3521# a_11249_3213# VDD VDD sky130_fd_pr__pfet_01v8_hvt ad=0.174 pd=1.41 as=0.225 ps=1.38 w=0.84 l=0.15
X138 a_11857_4801# a_10629_4801# a_11715_5083# VDD sky130_fd_pr__pfet_01v8_hvt ad=0.0567 pd=0.69 as=0.174 ps=1.41 w=0.42 l=0.15
X139 x4.A a_897_4112# VDD VDD sky130_fd_pr__pfet_01v8_hvt ad=0.135 pd=1.27 as=0.135 ps=1.27 w=1 l=0.15
X140 a_6292_5167# a_5845_4801# a_6199_4801# VSS sky130_fd_pr__nfet_01v8 ad=0.0684 pd=0.74 as=0.066 ps=0.745 w=0.36 l=0.15
X141 VDD a_1207_2340# x51.Q_N VDD sky130_fd_pr__pfet_01v8_hvt ad=0.154 pd=1.34 as=0.26 ps=2.52 w=1 l=0.15
X142 a_3983_3605# a_3452_3239# a_3899_3605# VDD sky130_fd_pr__pfet_01v8_hvt ad=0.0945 pd=0.87 as=0.0567 ps=0.69 w=0.42 l=0.15
X143 a_2389_5648# a_3258_5648# a_2883_5674# VSS sky130_fd_pr__nfet_01v8 ad=0.0578 pd=0.695 as=0.109 ps=1.36 w=0.42 l=0.15
X144 a_5896_2340# a_5991_2340# VDD VDD sky130_fd_pr__pfet_01v8_hvt ad=0.166 pd=1.8 as=0.149 ps=1.33 w=0.64 l=0.15
X145 VSS a_6466_4775# a_6400_4801# VSS sky130_fd_pr__nfet_01v8 ad=0.084 pd=0.82 as=0.0671 ps=0.75 w=0.42 l=0.15
X146 a_4658_4086# a_3913_4112# a_4794_4112# VSS sky130_fd_pr__nfet_01v8 ad=0.0864 pd=0.91 as=0.166 ps=1.8 w=0.64 l=0.15
X147 VDD a_2463_4775# a_3170_4801# VDD sky130_fd_pr__pfet_01v8_hvt ad=0.149 pd=1.33 as=0.166 ps=1.8 w=0.64 l=0.15
X148 a_7481_5083# a_7073_4801# a_7247_4775# VDD sky130_fd_pr__pfet_01v8_hvt ad=0.0882 pd=1.05 as=0.123 ps=1.17 w=0.84 l=0.15
X149 a_9237_2340# D[3] VDD VDD sky130_fd_pr__pfet_01v8_hvt ad=0.166 pd=1.8 as=0.0864 ps=0.91 w=0.64 l=0.15
X150 VDD reset a_621_4112# VDD sky130_fd_pr__pfet_01v8_hvt ad=0.115 pd=1.08 as=0.205 ps=2.1 w=0.79 l=0.15
X151 a_9173_4112# a_8384_4086# VSS VSS sky130_fd_pr__nfet_01v8 ad=0.066 pd=0.745 as=0.0588 ps=0.7 w=0.42 l=0.15
X152 VDD comparator_out a_2979_2366# VDD sky130_fd_pr__pfet_01v8_hvt ad=0.109 pd=1.36 as=0.0662 ps=0.735 w=0.42 l=0.15
X153 VDD a_11833_2340# a_11766_2732# VDD sky130_fd_pr__pfet_01v8_hvt ad=0.225 pd=1.38 as=0.174 ps=1.41 w=0.84 l=0.15
X154 VSS VSS a_3452_3239# VSS sky130_fd_pr__nfet_01v8 ad=0.0567 pd=0.69 as=0.109 ps=1.36 w=0.42 l=0.15
X155 VDD a_9442_4086# a_9375_4478# VDD sky130_fd_pr__pfet_01v8_hvt ad=0.225 pd=1.38 as=0.174 ps=1.41 w=0.84 l=0.15
X156 VDD x30.Q_N a_7049_2340# VDD sky130_fd_pr__pfet_01v8_hvt ad=0.0798 pd=0.8 as=0.147 ps=1.23 w=0.42 l=0.15
X157 a_4317_3521# a_3899_3605# a_4073_3213# VDD sky130_fd_pr__pfet_01v8_hvt ad=0.113 pd=1.11 as=0.147 ps=1.23 w=0.84 l=0.15
X158 a_6376_5167# a_5845_4801# a_6292_5167# VDD sky130_fd_pr__pfet_01v8_hvt ad=0.0945 pd=0.87 as=0.0567 ps=0.69 w=0.42 l=0.15
X159 a_3900_5167# a_3453_4801# a_3807_4801# VSS sky130_fd_pr__nfet_01v8 ad=0.0684 pd=0.74 as=0.066 ps=0.745 w=0.36 l=0.15
X160 VSS a_8383_2340# x60.Q_N VSS sky130_fd_pr__nfet_01v8 ad=0.097 pd=0.975 as=0.169 ps=1.82 w=0.65 l=0.15
X161 a_11249_3213# x39.Q_N VDD VDD sky130_fd_pr__pfet_01v8_hvt ad=0.147 pd=1.23 as=0.0798 ps=0.8 w=0.42 l=0.15
X162 a_1227_4801# a_1061_4801# VSS VSS sky130_fd_pr__nfet_01v8 ad=0.109 pd=1.36 as=0.0567 ps=0.69 w=0.42 l=0.15
X163 a_4074_4775# VDD VDD VDD sky130_fd_pr__pfet_01v8_hvt ad=0.147 pd=1.23 as=0.0798 ps=0.8 w=0.42 l=0.15
X164 a_8997_3239# x42.Q_N VSS VSS sky130_fd_pr__nfet_01v8 ad=0.101 pd=0.99 as=0.084 ps=0.82 w=0.42 l=0.15
X165 x5.X a_1338_5674# VDD VDD sky130_fd_pr__pfet_01v8_hvt ad=0.135 pd=1.27 as=0.149 ps=1.33 w=1 l=0.15
X166 a_8591_4801# check[5] VDD VDD sky130_fd_pr__pfet_01v8_hvt ad=0.0662 pd=0.735 as=0.109 ps=1.36 w=0.42 l=0.15
X167 a_11289_4394# a_11089_4112# VDD VDD sky130_fd_pr__pfet_01v8_hvt ad=0.0882 pd=1.05 as=0.218 ps=2.2 w=0.84 l=0.15
X168 a_1511_4112# x4.A VDD VDD sky130_fd_pr__pfet_01v8_hvt ad=0.135 pd=1.27 as=0.26 ps=2.52 w=1 l=0.15
X169 x4.X a_1511_4112# VSS VSS sky130_fd_pr__nfet_01v8 ad=0.0878 pd=0.92 as=0.0878 ps=0.92 w=0.65 l=0.15
X170 x75.Q a_5561_3239# VDD VDD sky130_fd_pr__pfet_01v8_hvt ad=0.26 pd=2.52 as=0.149 ps=1.33 w=1 l=0.15
X171 a_11966_4801# a_10629_4801# a_11857_4801# VSS sky130_fd_pr__nfet_01v8 ad=0.066 pd=0.745 as=0.0711 ps=0.755 w=0.36 l=0.15
X172 a_9376_2366# a_9236_2640# a_8938_2340# VSS sky130_fd_pr__nfet_01v8 ad=0.0935 pd=0.965 as=0.0711 ps=0.755 w=0.36 l=0.15
X173 eob a_2389_5648# VSS VSS sky130_fd_pr__nfet_01v8 ad=0.0878 pd=0.92 as=0.114 ps=1 w=0.65 l=0.15
X174 a_6781_4112# a_5992_4086# VSS VSS sky130_fd_pr__nfet_01v8 ad=0.066 pd=0.745 as=0.0588 ps=0.7 w=0.42 l=0.15
X175 x77.Y eob VDD VDD sky130_fd_pr__pfet_01v8_hvt ad=0.26 pd=2.52 as=0.26 ps=2.52 w=1 l=0.15
X176 a_9237_2340# D[3] VSS VSS sky130_fd_pr__nfet_01v8 ad=0.109 pd=1.36 as=0.0567 ps=0.69 w=0.42 l=0.15
X177 a_11715_5083# a_11250_4775# VDD VDD sky130_fd_pr__pfet_01v8_hvt ad=0.174 pd=1.41 as=0.225 ps=1.38 w=0.84 l=0.15
X178 x27.Q_N a_4855_4775# VDD VDD sky130_fd_pr__pfet_01v8_hvt ad=0.26 pd=2.52 as=0.154 ps=1.34 w=1 l=0.15
X179 a_3984_5167# a_3453_4801# a_3900_5167# VDD sky130_fd_pr__pfet_01v8_hvt ad=0.0945 pd=0.87 as=0.0567 ps=0.69 w=0.42 l=0.15
X180 a_8791_3239# a_8402_3239# a_8683_3605# VSS sky130_fd_pr__nfet_01v8 ad=0.0671 pd=0.75 as=0.0684 ps=0.74 w=0.36 l=0.15
X181 a_11089_4112# x4.X VSS VSS sky130_fd_pr__nfet_01v8 ad=0.109 pd=1.36 as=0.097 ps=0.975 w=0.42 l=0.15
X182 a_5991_2340# a_6546_2340# a_6504_2648# VDD sky130_fd_pr__pfet_01v8_hvt ad=0.123 pd=1.17 as=0.0882 ps=1.05 w=0.84 l=0.15
X183 a_11075_3605# a_10794_3239# a_10982_3239# VDD sky130_fd_pr__pfet_01v8_hvt ad=0.0567 pd=0.69 as=0.0662 ps=0.735 w=0.42 l=0.15
X184 VDD check[0] a_5372_4112# VDD sky130_fd_pr__pfet_01v8_hvt ad=0.109 pd=1.36 as=0.0662 ps=0.735 w=0.42 l=0.15
X185 VDD a_11629_2340# a_11628_2640# VDD sky130_fd_pr__pfet_01v8_hvt ad=0.0864 pd=0.91 as=0.166 ps=1.8 w=0.64 l=0.15
X186 a_9638_3213# a_9464_3239# a_9754_3239# VSS sky130_fd_pr__nfet_01v8 ad=0.0864 pd=0.91 as=0.12 ps=1.08 w=0.64 l=0.15
X187 a_5088_3521# a_4680_3239# a_4854_3213# VDD sky130_fd_pr__pfet_01v8_hvt ad=0.0882 pd=1.05 as=0.123 ps=1.17 w=0.84 l=0.15
X188 x4.X a_1511_4112# VDD VDD sky130_fd_pr__pfet_01v8_hvt ad=0.135 pd=1.27 as=0.135 ps=1.27 w=1 l=0.15
X189 VDD VDD a_9442_4086# VDD sky130_fd_pr__pfet_01v8_hvt ad=0.0798 pd=0.8 as=0.147 ps=1.23 w=0.42 l=0.15
X190 a_6984_2366# a_6844_2640# a_6546_2340# VSS sky130_fd_pr__nfet_01v8 ad=0.0935 pd=0.965 as=0.0711 ps=0.755 w=0.36 l=0.15
X191 VDD x4.X a_4367_3213# VDD sky130_fd_pr__pfet_01v8_hvt ad=0.154 pd=1.34 as=0.166 ps=1.8 w=0.64 l=0.15
X192 a_7318_4296# a_6846_4086# a_7562_4478# VDD sky130_fd_pr__pfet_01v8_hvt ad=0.0567 pd=0.69 as=0.0945 ps=0.87 w=0.42 l=0.15
X193 VSS a_9441_2340# a_9376_2366# VSS sky130_fd_pr__nfet_01v8 ad=0.166 pd=1.8 as=0.0935 ps=0.965 w=0.64 l=0.15
X194 a_4318_5083# a_3900_5167# a_4074_4775# VDD sky130_fd_pr__pfet_01v8_hvt ad=0.113 pd=1.11 as=0.147 ps=1.23 w=0.84 l=0.15
X195 check[4] a_10346_4801# VDD VDD sky130_fd_pr__pfet_01v8_hvt ad=0.26 pd=2.52 as=0.149 ps=1.33 w=1 l=0.15
X196 VDD a_1511_4112# x4.X VDD sky130_fd_pr__pfet_01v8_hvt ad=0.135 pd=1.27 as=0.135 ps=1.27 w=1 l=0.15
X197 a_12101_2550# a_11629_2340# a_12345_2732# VDD sky130_fd_pr__pfet_01v8_hvt ad=0.0567 pd=0.69 as=0.0945 ps=0.87 w=0.42 l=0.15
X198 a_12548_4112# a_11629_4386# a_12102_4296# VDD sky130_fd_pr__pfet_01v8_hvt ad=0.0662 pd=0.735 as=0.0567 ps=0.69 w=0.42 l=0.15
X199 VSS x5.X a_3453_4801# VSS sky130_fd_pr__nfet_01v8 ad=0.0567 pd=0.69 as=0.109 ps=1.36 w=0.42 l=0.15
X200 a_11250_4775# VDD VDD VDD sky130_fd_pr__pfet_01v8_hvt ad=0.147 pd=1.23 as=0.0798 ps=0.8 w=0.42 l=0.15
X201 a_4453_2340# D[5] VDD VDD sky130_fd_pr__pfet_01v8_hvt ad=0.166 pd=1.8 as=0.0864 ps=0.91 w=0.64 l=0.15
X202 a_3373_5674# a_3258_5648# a_2389_5648# VDD sky130_fd_pr__pfet_01v8_hvt ad=0.14 pd=1.6 as=0.0729 ps=0.81 w=0.54 l=0.15
X203 VSS x4.X a_6759_3213# VSS sky130_fd_pr__nfet_01v8 ad=0.097 pd=0.975 as=0.109 ps=1.36 w=0.42 l=0.15
X204 VSS reset a_621_4112# VSS sky130_fd_pr__nfet_01v8 ad=0.0754 pd=0.81 as=0.135 ps=1.56 w=0.52 l=0.15
X205 a_1762_2340# a_2061_2340# a_1996_2366# VSS sky130_fd_pr__nfet_01v8 ad=0.0711 pd=0.755 as=0.066 ps=0.745 w=0.36 l=0.15
X206 a_9550_3605# a_8402_3239# a_9464_3239# VDD sky130_fd_pr__pfet_01v8_hvt ad=0.0924 pd=0.86 as=0.0567 ps=0.69 w=0.42 l=0.15
X207 a_8998_4801# VDD VSS VSS sky130_fd_pr__nfet_01v8 ad=0.101 pd=0.99 as=0.084 ps=0.82 w=0.42 l=0.15
X208 x4.X a_1511_4112# VSS VSS sky130_fd_pr__nfet_01v8 ad=0.0878 pd=0.92 as=0.0878 ps=0.92 w=0.65 l=0.15
X209 a_7049_2340# a_7317_2550# a_7263_2648# VDD sky130_fd_pr__pfet_01v8_hvt ad=0.147 pd=1.23 as=0.113 ps=1.11 w=0.84 l=0.15
X210 a_6198_3239# comparator_out VDD VDD sky130_fd_pr__pfet_01v8_hvt ad=0.0662 pd=0.735 as=0.109 ps=1.36 w=0.42 l=0.15
X211 VSS comparator_out a_7763_2366# VSS sky130_fd_pr__nfet_01v8 ad=0.109 pd=1.36 as=0.066 ps=0.745 w=0.42 l=0.15
X212 a_2398_4801# a_1061_4801# a_2289_4801# VSS sky130_fd_pr__nfet_01v8 ad=0.066 pd=0.745 as=0.0711 ps=0.755 w=0.36 l=0.15
X213 VSS a_11629_2340# a_11628_2640# VSS sky130_fd_pr__nfet_01v8 ad=0.0567 pd=0.69 as=0.109 ps=1.36 w=0.42 l=0.15
X214 VDD a_6759_3213# a_7480_3521# VDD sky130_fd_pr__pfet_01v8_hvt ad=0.218 pd=2.2 as=0.0882 ps=1.05 w=0.84 l=0.15
X215 a_3877_5674# a_2853_5648# a_3373_5674# VSS sky130_fd_pr__nfet_01v8 ad=0.066 pd=0.745 as=0.072 ps=0.76 w=0.36 l=0.15
X216 a_9656_4394# a_8697_4112# VDD VDD sky130_fd_pr__pfet_01v8_hvt ad=0.113 pd=1.11 as=0.225 ps=1.38 w=0.84 l=0.15
X217 a_7185_2366# a_7317_2550# a_7049_2340# VSS sky130_fd_pr__nfet_01v8 ad=0.101 pd=0.99 as=0.0864 ps=0.91 w=0.64 l=0.15
X218 a_10155_2366# a_9237_2340# a_9709_2550# VSS sky130_fd_pr__nfet_01v8 ad=0.066 pd=0.745 as=0.0684 ps=0.74 w=0.36 l=0.15
X219 a_1926_5083# a_1508_5167# a_1682_4775# VDD sky130_fd_pr__pfet_01v8_hvt ad=0.113 pd=1.11 as=0.147 ps=1.23 w=0.84 l=0.15
X220 a_9370_4801# a_8858_4775# VSS VSS sky130_fd_pr__nfet_01v8 ad=0.0935 pd=0.965 as=0.166 ps=1.8 w=0.64 l=0.15
X221 a_3504_2340# a_3599_2340# VDD VDD sky130_fd_pr__pfet_01v8_hvt ad=0.166 pd=1.8 as=0.149 ps=1.33 w=0.64 l=0.15
X222 VDD VDD a_11834_4086# VDD sky130_fd_pr__pfet_01v8_hvt ad=0.0798 pd=0.8 as=0.147 ps=1.23 w=0.42 l=0.15
X223 a_11076_5167# a_10795_4801# a_10983_4801# VDD sky130_fd_pr__pfet_01v8_hvt ad=0.0567 pd=0.69 as=0.0662 ps=0.735 w=0.42 l=0.15
X224 a_8792_4801# a_8403_4801# a_8684_5167# VSS sky130_fd_pr__nfet_01v8 ad=0.0671 pd=0.75 as=0.0684 ps=0.74 w=0.36 l=0.15
X225 a_5089_5083# a_4681_4801# a_4855_4775# VDD sky130_fd_pr__pfet_01v8_hvt ad=0.0882 pd=1.05 as=0.123 ps=1.17 w=0.84 l=0.15
X226 x4.X a_1511_4112# VSS VSS sky130_fd_pr__nfet_01v8 ad=0.0878 pd=0.92 as=0.0878 ps=0.92 w=0.65 l=0.15
X227 VDD a_2061_2340# a_2060_2640# VDD sky130_fd_pr__pfet_01v8_hvt ad=0.0864 pd=0.91 as=0.166 ps=1.8 w=0.64 l=0.15
X228 a_3671_5674# x48.Q VSS VSS sky130_fd_pr__nfet_01v8 ad=0.0671 pd=0.75 as=0.0819 ps=0.81 w=0.42 l=0.15
X229 a_4453_2340# D[5] VSS VSS sky130_fd_pr__nfet_01v8 ad=0.109 pd=1.36 as=0.0567 ps=0.69 w=0.42 l=0.15
X230 a_4657_2340# a_4925_2550# a_4871_2648# VDD sky130_fd_pr__pfet_01v8_hvt ad=0.147 pd=1.23 as=0.113 ps=1.11 w=0.84 l=0.15
X231 a_3806_3239# VSS VDD VDD sky130_fd_pr__pfet_01v8_hvt ad=0.0662 pd=0.735 as=0.109 ps=1.36 w=0.42 l=0.15
X232 a_9639_4775# a_9465_4801# a_9755_4801# VSS sky130_fd_pr__nfet_01v8 ad=0.0864 pd=0.91 as=0.12 ps=1.08 w=0.64 l=0.15
X233 VDD a_12030_3213# a_12737_3239# VDD sky130_fd_pr__pfet_01v8_hvt ad=0.149 pd=1.33 as=0.166 ps=1.8 w=0.64 l=0.15
X234 a_4970_3239# a_4367_3213# a_4854_3213# VSS sky130_fd_pr__nfet_01v8 ad=0.166 pd=1.8 as=0.0864 ps=0.91 w=0.64 l=0.15
X235 a_8857_3213# a_8683_3605# a_8997_3239# VSS sky130_fd_pr__nfet_01v8 ad=0.0864 pd=0.91 as=0.101 ps=0.99 w=0.64 l=0.15
X236 a_3600_4086# a_4155_4086# a_4113_4394# VDD sky130_fd_pr__pfet_01v8_hvt ad=0.123 pd=1.17 as=0.0882 ps=1.05 w=0.84 l=0.15
X237 a_8383_2340# a_8696_2366# a_8802_2366# VSS sky130_fd_pr__nfet_01v8 ad=0.0864 pd=0.91 as=0.166 ps=1.8 w=0.64 l=0.15
X238 VDD a_6465_3213# a_6375_3605# VDD sky130_fd_pr__pfet_01v8_hvt ad=0.0798 pd=0.8 as=0.0945 ps=0.87 w=0.42 l=0.15
X239 VSS check[0] a_3877_5674# VSS sky130_fd_pr__nfet_01v8 ad=0.0567 pd=0.69 as=0.066 ps=0.745 w=0.42 l=0.15
X240 VSS a_2463_4775# a_2398_4801# VSS sky130_fd_pr__nfet_01v8 ad=0.0588 pd=0.7 as=0.066 ps=0.745 w=0.42 l=0.15
X241 VSS a_8289_4086# check[1] VSS sky130_fd_pr__nfet_01v8 ad=0.097 pd=0.975 as=0.169 ps=1.82 w=0.65 l=0.15
X242 x5.A a_1062_5674# VDD VDD sky130_fd_pr__pfet_01v8_hvt ad=0.205 pd=2.1 as=0.115 ps=1.08 w=0.79 l=0.15
X243 VDD check[0] a_3876_6040# VDD sky130_fd_pr__pfet_01v8_hvt ad=0.0864 pd=0.91 as=0.0974 ps=0.97 w=0.64 l=0.15
X244 a_11390_4801# VDD VSS VSS sky130_fd_pr__nfet_01v8 ad=0.101 pd=0.99 as=0.084 ps=0.82 w=0.42 l=0.15
X245 VSS a_5991_2340# x57.Q_N VSS sky130_fd_pr__nfet_01v8 ad=0.097 pd=0.975 as=0.169 ps=1.82 w=0.65 l=0.15
X246 a_4590_2732# a_4453_2340# a_4154_2340# VDD sky130_fd_pr__pfet_01v8_hvt ad=0.174 pd=1.41 as=0.0567 ps=0.69 w=0.42 l=0.15
X247 VDD a_8288_2340# D[4] VDD sky130_fd_pr__pfet_01v8_hvt ad=0.149 pd=1.33 as=0.26 ps=2.52 w=1 l=0.15
X248 VSS comparator_out a_10155_2366# VSS sky130_fd_pr__nfet_01v8 ad=0.109 pd=1.36 as=0.066 ps=0.745 w=0.42 l=0.15
X249 a_9953_2732# a_9441_2340# VDD VDD sky130_fd_pr__pfet_01v8_hvt ad=0.0945 pd=0.87 as=0.0798 ps=0.8 w=0.42 l=0.15
X250 a_8289_4086# a_8384_4086# VDD VDD sky130_fd_pr__pfet_01v8_hvt ad=0.166 pd=1.8 as=0.149 ps=1.33 w=0.64 l=0.15
X251 a_2697_5083# a_2289_4801# a_2463_4775# VDD sky130_fd_pr__pfet_01v8_hvt ad=0.0882 pd=1.05 as=0.123 ps=1.17 w=0.84 l=0.15
X252 a_9551_5167# a_8403_4801# a_9465_4801# VDD sky130_fd_pr__pfet_01v8_hvt ad=0.0924 pd=0.86 as=0.0567 ps=0.69 w=0.42 l=0.15
X253 a_9441_2340# a_8696_2366# a_9577_2366# VSS sky130_fd_pr__nfet_01v8 ad=0.0864 pd=0.91 as=0.166 ps=1.8 w=0.64 l=0.15
X254 a_6199_4801# check[6] VDD VDD sky130_fd_pr__pfet_01v8_hvt ad=0.0662 pd=0.735 as=0.109 ps=1.36 w=0.42 l=0.15
X255 a_11630_4086# x5.X VSS VSS sky130_fd_pr__nfet_01v8 ad=0.109 pd=1.36 as=0.0567 ps=0.69 w=0.42 l=0.15
X256 VSS x4.X a_6760_4775# VSS sky130_fd_pr__nfet_01v8 ad=0.097 pd=0.975 as=0.109 ps=1.36 w=0.42 l=0.15
X257 a_5170_4112# a_4658_4086# VSS VSS sky130_fd_pr__nfet_01v8 ad=0.0671 pd=0.75 as=0.084 ps=0.82 w=0.42 l=0.15
X258 a_10680_2340# a_10775_2340# VSS VSS sky130_fd_pr__nfet_01v8 ad=0.109 pd=1.36 as=0.097 ps=0.975 w=0.42 l=0.15
X259 VSS sel_bit[1] a_3258_5648# VSS sky130_fd_pr__nfet_01v8 ad=0.0819 pd=0.81 as=0.113 ps=1.38 w=0.42 l=0.15
X260 a_9173_4478# a_8384_4086# VDD VDD sky130_fd_pr__pfet_01v8_hvt ad=0.0924 pd=0.86 as=0.0819 ps=0.81 w=0.42 l=0.15