* NGSPICE file created from hgu_cdac_sw_buffer_flat.ext - technology: sky130A

.subckt hgu_cdac_sw_buffer_flat sar_val<7> sar_val<6> sar_val<5> sar_val<4> sar_val<3>
+ sw<6> sw<2> sw<3> sw<4> sw<5> VSS VDD
X0 sw<6>.t27 a_n85_n1195# VDD.t95 VDD.t94 sky130_fd_pr__pfet_01v8_hvt ad=0.135 pd=1.27 as=0.135 ps=1.27 w=1 l=0.15
X1 VSS.t44 a_795_n2019# sw<5>.t0 VSS.t43 sky130_fd_pr__nfet_01v8 ad=0.0878 pd=0.92 as=0.0878 ps=0.92 w=0.65 l=0.15
X2 sw<6>.t26 a_n85_n1195# VDD.t93 VDD.t92 sky130_fd_pr__pfet_01v8_hvt ad=0.135 pd=1.27 as=0.26 ps=2.52 w=1 l=0.15
X3 VSS.t47 a_1317_n2468# x8.X VSS.t46 sky130_fd_pr__nfet_01v8 ad=0.0754 pd=0.81 as=0.135 ps=1.56 w=0.52 l=0.15
X4 x11.A a_1347_n2019# VDD.t103 VDD.t102 sky130_fd_pr__pfet_01v8_hvt ad=0.135 pd=1.27 as=0.26 ps=2.52 w=1 l=0.15
X5 VDD.t101 a_1347_n2019# x11.A VDD.t100 sky130_fd_pr__pfet_01v8_hvt ad=0.135 pd=1.27 as=0.135 ps=1.27 w=1 l=0.15
X6 a_n85_n1195# x11.A VSS.t36 VSS.t35 sky130_fd_pr__nfet_01v8 ad=0.0878 pd=0.92 as=0.0878 ps=0.92 w=0.65 l=0.15
X7 VSS.t92 a_n85_n1195# sw<6>.t10 VSS.t91 sky130_fd_pr__nfet_01v8 ad=0.0878 pd=0.92 as=0.0878 ps=0.92 w=0.65 l=0.15
X8 VDD.t91 a_n85_n1195# sw<6>.t25 VDD.t90 sky130_fd_pr__pfet_01v8_hvt ad=0.135 pd=1.27 as=0.135 ps=1.27 w=1 l=0.15
X9 a_n85_n1195# x11.A VDD.t29 VDD.t28 sky130_fd_pr__pfet_01v8_hvt ad=0.135 pd=1.27 as=0.135 ps=1.27 w=1 l=0.15
X10 VSS.t90 a_n85_n1195# sw<6>.t11 VSS.t89 sky130_fd_pr__nfet_01v8 ad=0.0878 pd=0.92 as=0.0878 ps=0.92 w=0.65 l=0.15
X11 VSS.t24 sar_val<7>.t0 a_1543_n2633# VSS.t23 sky130_fd_pr__nfet_01v8 ad=0.0754 pd=0.81 as=0.135 ps=1.56 w=0.52 l=0.15
X12 VSS.t88 a_n85_n1195# sw<6>.t8 VSS.t87 sky130_fd_pr__nfet_01v8 ad=0.0878 pd=0.92 as=0.0878 ps=0.92 w=0.65 l=0.15
X13 VDD.t89 a_n85_n1195# sw<6>.t24 VDD.t88 sky130_fd_pr__pfet_01v8_hvt ad=0.135 pd=1.27 as=0.135 ps=1.27 w=1 l=0.15
X14 x3.X a_991_n2633# VSS.t7 VSS.t6 sky130_fd_pr__nfet_01v8 ad=0.135 pd=1.56 as=0.0754 ps=0.81 w=0.52 l=0.15
X15 VDD.t87 a_n85_n1195# sw<6>.t23 VDD.t86 sky130_fd_pr__pfet_01v8_hvt ad=0.135 pd=1.27 as=0.135 ps=1.27 w=1 l=0.15
X16 sw<2>.t0 a_n113_n2633# VSS.t49 VSS.t48 sky130_fd_pr__nfet_01v8 ad=0.135 pd=1.56 as=0.0754 ps=0.81 w=0.52 l=0.15
X17 sw<6>.t0 a_n85_n1195# VSS.t86 VSS.t85 sky130_fd_pr__nfet_01v8 ad=0.0878 pd=0.92 as=0.0878 ps=0.92 w=0.65 l=0.15
X18 VSS.t84 a_n85_n1195# sw<6>.t28 VSS.t58 sky130_fd_pr__nfet_01v8 ad=0.0878 pd=0.92 as=0.0878 ps=0.92 w=0.65 l=0.15
X19 VDD.t85 a_n85_n1195# sw<6>.t22 VDD.t84 sky130_fd_pr__pfet_01v8_hvt ad=0.135 pd=1.27 as=0.135 ps=1.27 w=1 l=0.15
X20 VSS.t5 a_765_n2468# x12.X VSS.t4 sky130_fd_pr__nfet_01v8 ad=0.0754 pd=0.81 as=0.135 ps=1.56 w=0.52 l=0.15
X21 sw<5>.t6 a_795_n2019# VDD.t37 VDD.t36 sky130_fd_pr__pfet_01v8_hvt ad=0.135 pd=1.27 as=0.26 ps=2.52 w=1 l=0.15
X22 VSS.t94 sar_val<3>.t0 a_n113_n2633# VSS.t93 sky130_fd_pr__nfet_01v8 ad=0.0754 pd=0.81 as=0.135 ps=1.56 w=0.52 l=0.15
X23 sw<6>.t21 a_n85_n1195# VDD.t83 VDD.t82 sky130_fd_pr__pfet_01v8_hvt ad=0.135 pd=1.27 as=0.135 ps=1.27 w=1 l=0.15
X24 sw<3>.t0 a_163_n2633# VSS.t3 VSS.t2 sky130_fd_pr__nfet_01v8 ad=0.135 pd=1.56 as=0.0754 ps=0.81 w=0.52 l=0.15
X25 VDD.t11 sar_val<6>.t0 a_991_n2633# VDD.t10 sky130_fd_pr__pfet_01v8_hvt ad=0.115 pd=1.08 as=0.205 ps=2.1 w=0.79 l=0.15
X26 x11.A a_1347_n2019# VDD.t99 VDD.t98 sky130_fd_pr__pfet_01v8_hvt ad=0.135 pd=1.27 as=0.135 ps=1.27 w=1 l=0.15
X27 a_n85_n1195# x11.A VSS.t34 VSS.t33 sky130_fd_pr__nfet_01v8 ad=0.0878 pd=0.92 as=0.0878 ps=0.92 w=0.65 l=0.15
X28 a_255_n2019# x4.X VSS.t13 VSS.t12 sky130_fd_pr__nfet_01v8 ad=0.169 pd=1.82 as=0.0878 ps=0.92 w=0.65 l=0.15
X29 VSS.t32 x11.A a_n85_n1195# VSS.t31 sky130_fd_pr__nfet_01v8 ad=0.169 pd=1.82 as=0.0878 ps=0.92 w=0.65 l=0.15
X30 VDD.t27 x11.A a_n85_n1195# VDD.t26 sky130_fd_pr__pfet_01v8_hvt ad=0.26 pd=2.52 as=0.135 ps=1.27 w=1 l=0.15
X31 a_n85_n1195# x11.A VDD.t25 VDD.t24 sky130_fd_pr__pfet_01v8_hvt ad=0.135 pd=1.27 as=0.135 ps=1.27 w=1 l=0.15
X32 VDD.t61 sar_val<4>.t0 a_163_n2633# VDD.t60 sky130_fd_pr__pfet_01v8_hvt ad=0.115 pd=1.08 as=0.205 ps=2.1 w=0.79 l=0.15
X33 a_795_n2019# x3.X VDD.t48 VDD.t8 sky130_fd_pr__pfet_01v8_hvt ad=0.26 pd=2.52 as=0.135 ps=1.27 w=1 l=0.15
X34 sw<4>.t3 a_255_n2019# VSS.t65 VSS.t64 sky130_fd_pr__nfet_01v8 ad=0.0878 pd=0.92 as=0.169 ps=1.82 w=0.65 l=0.15
X35 a_n85_n1195# x11.A VSS.t30 VSS.t29 sky130_fd_pr__nfet_01v8 ad=0.0878 pd=0.92 as=0.0878 ps=0.92 w=0.65 l=0.15
X36 VSS.t28 x11.A a_n85_n1195# VSS.t27 sky130_fd_pr__nfet_01v8 ad=0.0878 pd=0.92 as=0.0878 ps=0.92 w=0.65 l=0.15
X37 VDD.t23 x11.A a_n85_n1195# VDD.t22 sky130_fd_pr__pfet_01v8_hvt ad=0.135 pd=1.27 as=0.135 ps=1.27 w=1 l=0.15
X38 a_n85_n1195# x11.A VDD.t21 VDD.t20 sky130_fd_pr__pfet_01v8_hvt ad=0.135 pd=1.27 as=0.135 ps=1.27 w=1 l=0.15
X39 x4.X a_439_n2633# VDD.t3 VDD.t2 sky130_fd_pr__pfet_01v8_hvt ad=0.205 pd=2.1 as=0.115 ps=1.08 w=0.79 l=0.15
X40 VDD.t63 sar_val<5>.t0 a_439_n2633# VDD.t62 sky130_fd_pr__pfet_01v8_hvt ad=0.115 pd=1.08 as=0.205 ps=2.1 w=0.79 l=0.15
X41 sw<6>.t5 a_n85_n1195# VSS.t83 VSS.t82 sky130_fd_pr__nfet_01v8 ad=0.0878 pd=0.92 as=0.0878 ps=0.92 w=0.65 l=0.15
X42 sw<5>.t5 a_795_n2019# VDD.t35 VDD.t34 sky130_fd_pr__pfet_01v8_hvt ad=0.135 pd=1.27 as=0.135 ps=1.27 w=1 l=0.15
X43 sw<6>.t20 a_n85_n1195# VDD.t81 VDD.t80 sky130_fd_pr__pfet_01v8_hvt ad=0.135 pd=1.27 as=0.135 ps=1.27 w=1 l=0.15
X44 VDD.t33 a_795_n2019# sw<5>.t4 VDD.t32 sky130_fd_pr__pfet_01v8_hvt ad=0.135 pd=1.27 as=0.135 ps=1.27 w=1 l=0.15
X45 VSS.t22 VSS.t20 a_n101_n1993# VSS.t21 sky130_fd_pr__nfet_01v8 ad=0.0754 pd=0.81 as=0.135 ps=1.56 w=0.52 l=0.15
X46 VDD.t31 a_795_n2019# sw<5>.t3 VDD.t30 sky130_fd_pr__pfet_01v8_hvt ad=0.135 pd=1.27 as=0.135 ps=1.27 w=1 l=0.15
X47 VSS.t55 sar_val<6>.t1 a_991_n2633# VSS.t54 sky130_fd_pr__nfet_01v8 ad=0.0754 pd=0.81 as=0.135 ps=1.56 w=0.52 l=0.15
X48 x7.X a_n101_n1993# VSS.t11 VSS.t10 sky130_fd_pr__nfet_01v8 ad=0.135 pd=1.56 as=0.0754 ps=0.81 w=0.52 l=0.15
X49 VDD.t51 VSS.t99 a_n101_n1993# VDD.t50 sky130_fd_pr__pfet_01v8_hvt ad=0.115 pd=1.08 as=0.205 ps=2.1 w=0.79 l=0.15
X50 VSS.t26 x11.A a_n85_n1195# VSS.t25 sky130_fd_pr__nfet_01v8 ad=0.0878 pd=0.92 as=0.0878 ps=0.92 w=0.65 l=0.15
X51 sw<4>.t2 a_255_n2019# VSS.t63 VSS.t62 sky130_fd_pr__nfet_01v8 ad=0.0878 pd=0.92 as=0.0878 ps=0.92 w=0.65 l=0.15
X52 VDD.t19 x11.A a_n85_n1195# VDD.t18 sky130_fd_pr__pfet_01v8_hvt ad=0.135 pd=1.27 as=0.135 ps=1.27 w=1 l=0.15
X53 VSS.t9 sar_val<4>.t1 a_163_n2633# VSS.t8 sky130_fd_pr__nfet_01v8 ad=0.0754 pd=0.81 as=0.135 ps=1.56 w=0.52 l=0.15
X54 x7.X a_n101_n1993# VDD.t13 VDD.t12 sky130_fd_pr__pfet_01v8_hvt ad=0.205 pd=2.1 as=0.115 ps=1.08 w=0.79 l=0.15
X55 VSS.t61 a_255_n2019# sw<4>.t1 VSS.t60 sky130_fd_pr__nfet_01v8 ad=0.0878 pd=0.92 as=0.0878 ps=0.92 w=0.65 l=0.15
X56 x4.X a_439_n2633# VSS.t1 VSS.t0 sky130_fd_pr__nfet_01v8 ad=0.135 pd=1.56 as=0.0754 ps=0.81 w=0.52 l=0.15
X57 VSS.t57 sar_val<5>.t1 a_439_n2633# VSS.t56 sky130_fd_pr__nfet_01v8 ad=0.0754 pd=0.81 as=0.135 ps=1.56 w=0.52 l=0.15
X58 a_255_n2019# x4.X VDD.t15 VDD.t14 sky130_fd_pr__pfet_01v8_hvt ad=0.26 pd=2.52 as=0.135 ps=1.27 w=1 l=0.15
X59 sw<4>.t7 a_255_n2019# VDD.t59 VDD.t58 sky130_fd_pr__pfet_01v8_hvt ad=0.135 pd=1.27 as=0.26 ps=2.52 w=1 l=0.15
X60 a_1317_n2468# VSS.t100 VDD.t41 VDD.t40 sky130_fd_pr__pfet_01v8_hvt ad=0.205 pd=2.1 as=0.115 ps=1.08 w=0.79 l=0.15
X61 VSS.t59 a_255_n2019# sw<4>.t0 VSS.t58 sky130_fd_pr__nfet_01v8 ad=0.0878 pd=0.92 as=0.0878 ps=0.92 w=0.65 l=0.15
X62 VSS.t81 a_n85_n1195# sw<6>.t3 VSS.t80 sky130_fd_pr__nfet_01v8 ad=0.0878 pd=0.92 as=0.0878 ps=0.92 w=0.65 l=0.15
X63 VDD.t79 a_n85_n1195# sw<6>.t19 VDD.t78 sky130_fd_pr__pfet_01v8_hvt ad=0.135 pd=1.27 as=0.135 ps=1.27 w=1 l=0.15
X64 x9.X a_1543_n2633# VDD.t49 VDD.t42 sky130_fd_pr__pfet_01v8_hvt ad=0.205 pd=2.1 as=0.115 ps=1.08 w=0.79 l=0.15
X65 VSS.t98 a_1347_n2019# x11.A VSS.t33 sky130_fd_pr__nfet_01v8 ad=0.0878 pd=0.92 as=0.0878 ps=0.92 w=0.65 l=0.15
X66 a_1347_n2019# x9.X VSS.t45 VSS.t31 sky130_fd_pr__nfet_01v8 ad=0.169 pd=1.82 as=0.0878 ps=0.92 w=0.65 l=0.15
X67 a_765_n2468# VSS.t101 VDD.t1 VDD.t0 sky130_fd_pr__pfet_01v8_hvt ad=0.205 pd=2.1 as=0.115 ps=1.08 w=0.79 l=0.15
X68 VSS.t97 a_1347_n2019# x11.A VSS.t29 sky130_fd_pr__nfet_01v8 ad=0.0878 pd=0.92 as=0.0878 ps=0.92 w=0.65 l=0.15
X69 x11.A a_1347_n2019# VSS.t96 VSS.t27 sky130_fd_pr__nfet_01v8 ad=0.0878 pd=0.92 as=0.169 ps=1.82 w=0.65 l=0.15
X70 sw<4>.t6 a_255_n2019# VDD.t57 VDD.t56 sky130_fd_pr__pfet_01v8_hvt ad=0.135 pd=1.27 as=0.135 ps=1.27 w=1 l=0.15
X71 sw<6>.t31 a_n85_n1195# VSS.t79 VSS.t12 sky130_fd_pr__nfet_01v8 ad=0.0878 pd=0.92 as=0.0878 ps=0.92 w=0.65 l=0.15
X72 sw<6>.t18 a_n85_n1195# VDD.t77 VDD.t76 sky130_fd_pr__pfet_01v8_hvt ad=0.135 pd=1.27 as=0.135 ps=1.27 w=1 l=0.15
X73 VDD.t55 a_255_n2019# sw<4>.t5 VDD.t54 sky130_fd_pr__pfet_01v8_hvt ad=0.135 pd=1.27 as=0.135 ps=1.27 w=1 l=0.15
X74 a_1317_n2468# VSS.t17 VSS.t19 VSS.t18 sky130_fd_pr__nfet_01v8 ad=0.135 pd=1.56 as=0.0754 ps=0.81 w=0.52 l=0.15
X75 sw<6>.t30 a_n85_n1195# VSS.t78 VSS.t64 sky130_fd_pr__nfet_01v8 ad=0.0878 pd=0.92 as=0.0878 ps=0.92 w=0.65 l=0.15
X76 sw<6>.t17 a_n85_n1195# VDD.t75 VDD.t74 sky130_fd_pr__pfet_01v8_hvt ad=0.135 pd=1.27 as=0.135 ps=1.27 w=1 l=0.15
X77 VSS.t77 a_n85_n1195# sw<6>.t7 VSS.t76 sky130_fd_pr__nfet_01v8 ad=0.0878 pd=0.92 as=0.0878 ps=0.92 w=0.65 l=0.15
X78 VDD.t73 a_n85_n1195# sw<6>.t16 VDD.t72 sky130_fd_pr__pfet_01v8_hvt ad=0.135 pd=1.27 as=0.135 ps=1.27 w=1 l=0.15
X79 sw<5>.t2 a_795_n2019# VSS.t42 VSS.t41 sky130_fd_pr__nfet_01v8 ad=0.0878 pd=0.92 as=0.169 ps=1.82 w=0.65 l=0.15
X80 VDD.t45 a_1317_n2468# x8.X VDD.t44 sky130_fd_pr__pfet_01v8_hvt ad=0.115 pd=1.08 as=0.205 ps=2.1 w=0.79 l=0.15
X81 x9.X a_1543_n2633# VSS.t53 VSS.t52 sky130_fd_pr__nfet_01v8 ad=0.135 pd=1.56 as=0.0754 ps=0.81 w=0.52 l=0.15
X82 x11.A a_1347_n2019# VSS.t95 VSS.t25 sky130_fd_pr__nfet_01v8 ad=0.0878 pd=0.92 as=0.0878 ps=0.92 w=0.65 l=0.15
X83 a_765_n2468# VSS.t14 VSS.t16 VSS.t15 sky130_fd_pr__nfet_01v8 ad=0.135 pd=1.56 as=0.0754 ps=0.81 w=0.52 l=0.15
X84 VDD.t39 sar_val<7>.t1 a_1543_n2633# VDD.t38 sky130_fd_pr__pfet_01v8_hvt ad=0.115 pd=1.08 as=0.205 ps=2.1 w=0.79 l=0.15
X85 sw<6>.t9 a_n85_n1195# VSS.t75 VSS.t74 sky130_fd_pr__nfet_01v8 ad=0.0878 pd=0.92 as=0.0878 ps=0.92 w=0.65 l=0.15
X86 sw<6>.t15 a_n85_n1195# VDD.t71 VDD.t70 sky130_fd_pr__pfet_01v8_hvt ad=0.135 pd=1.27 as=0.135 ps=1.27 w=1 l=0.15
X87 x3.X a_991_n2633# VDD.t9 VDD.t8 sky130_fd_pr__pfet_01v8_hvt ad=0.205 pd=2.1 as=0.115 ps=1.08 w=0.79 l=0.15
X88 sw<2>.t1 a_n113_n2633# VDD.t47 VDD.t46 sky130_fd_pr__pfet_01v8_hvt ad=0.205 pd=2.1 as=0.115 ps=1.08 w=0.79 l=0.15
X89 VDD.t53 a_255_n2019# sw<4>.t4 VDD.t52 sky130_fd_pr__pfet_01v8_hvt ad=0.135 pd=1.27 as=0.135 ps=1.27 w=1 l=0.15
X90 a_795_n2019# x3.X VSS.t51 VSS.t50 sky130_fd_pr__nfet_01v8 ad=0.169 pd=1.82 as=0.0878 ps=0.92 w=0.65 l=0.15
X91 sw<6>.t1 a_n85_n1195# VSS.t73 VSS.t62 sky130_fd_pr__nfet_01v8 ad=0.0878 pd=0.92 as=0.0878 ps=0.92 w=0.65 l=0.15
X92 VSS.t72 a_n85_n1195# sw<6>.t2 VSS.t71 sky130_fd_pr__nfet_01v8 ad=0.0878 pd=0.92 as=0.0878 ps=0.92 w=0.65 l=0.15
X93 sw<6>.t14 a_n85_n1195# VDD.t69 VDD.t68 sky130_fd_pr__pfet_01v8_hvt ad=0.135 pd=1.27 as=0.135 ps=1.27 w=1 l=0.15
X94 VDD.t67 a_n85_n1195# sw<6>.t13 VDD.t66 sky130_fd_pr__pfet_01v8_hvt ad=0.135 pd=1.27 as=0.135 ps=1.27 w=1 l=0.15
X95 VDD.t7 a_765_n2468# x12.X VDD.t6 sky130_fd_pr__pfet_01v8_hvt ad=0.115 pd=1.08 as=0.205 ps=2.1 w=0.79 l=0.15
X96 VDD.t17 sar_val<3>.t1 a_n113_n2633# VDD.t16 sky130_fd_pr__pfet_01v8_hvt ad=0.115 pd=1.08 as=0.205 ps=2.1 w=0.79 l=0.15
X97 sw<3>.t1 a_163_n2633# VDD.t5 VDD.t4 sky130_fd_pr__pfet_01v8_hvt ad=0.205 pd=2.1 as=0.115 ps=1.08 w=0.79 l=0.15
X98 sw<5>.t7 a_795_n2019# VSS.t40 VSS.t39 sky130_fd_pr__nfet_01v8 ad=0.0878 pd=0.92 as=0.0878 ps=0.92 w=0.65 l=0.15
X99 VDD.t97 a_1347_n2019# x11.A VDD.t96 sky130_fd_pr__pfet_01v8_hvt ad=0.135 pd=1.27 as=0.135 ps=1.27 w=1 l=0.15
X100 a_1347_n2019# x9.X VDD.t43 VDD.t42 sky130_fd_pr__pfet_01v8_hvt ad=0.26 pd=2.52 as=0.135 ps=1.27 w=1 l=0.15
X101 VSS.t38 a_795_n2019# sw<5>.t1 VSS.t37 sky130_fd_pr__nfet_01v8 ad=0.0878 pd=0.92 as=0.0878 ps=0.92 w=0.65 l=0.15
X102 VSS.t70 a_n85_n1195# sw<6>.t29 VSS.t60 sky130_fd_pr__nfet_01v8 ad=0.0878 pd=0.92 as=0.0878 ps=0.92 w=0.65 l=0.15
X103 VDD.t65 a_n85_n1195# sw<6>.t12 VDD.t64 sky130_fd_pr__pfet_01v8_hvt ad=0.135 pd=1.27 as=0.135 ps=1.27 w=1 l=0.15
X104 sw<6>.t6 a_n85_n1195# VSS.t69 VSS.t68 sky130_fd_pr__nfet_01v8 ad=0.0878 pd=0.92 as=0.0878 ps=0.92 w=0.65 l=0.15
X105 sw<6>.t4 a_n85_n1195# VSS.t67 VSS.t66 sky130_fd_pr__nfet_01v8 ad=0.0878 pd=0.92 as=0.169 ps=1.82 w=0.65 l=0.15
R0 VDD.n326 VDD.t93 201.19
R1 VDD.n316 VDD.n315 174.595
R2 VDD.n310 VDD.n309 174.595
R3 VDD.n300 VDD.n299 174.595
R4 VDD.n290 VDD.n289 174.595
R5 VDD.n280 VDD.n279 174.595
R6 VDD.n270 VDD.n269 174.595
R7 VDD.n65 VDD.n64 174.595
R8 VDD.n59 VDD.n58 174.595
R9 VDD.n36 VDD.n35 174.595
R10 VDD.n18 VDD.n17 174.595
R11 VDD.n128 VDD.n127 166.381
R12 VDD.n109 VDD.n108 166.381
R13 VDD.n175 VDD.n174 166.381
R14 VDD.n325 VDD.t92 164.006
R15 VDD.n199 VDD.n198 162.47
R16 VDD.n213 VDD.n212 162.47
R17 VDD.n231 VDD.n230 162.47
R18 VDD.n99 VDD.n95 162.47
R19 VDD.n110 VDD.n107 162.47
R20 VDD.n157 VDD.n124 162.47
R21 VDD.n132 VDD.n126 162.47
R22 VDD.n186 VDD.n185 162.47
R23 VDD.n149 VDD.n148 160.918
R24 VDD.n94 VDD.n93 160.918
R25 VDD.n181 VDD.n179 160.918
R26 VDD.n2 VDD.t27 159.46
R27 VDD.n119 VDD.t103 142.571
R28 VDD.n96 VDD.t37 142.571
R29 VDD.n183 VDD.t59 142.571
R30 VDD.n4 VDD.t26 112.367
R31 VDD.n281 VDD.t66 112.367
R32 VDD VDD.n129 111.127
R33 VDD.n4 VDD.t20 102.151
R34 VDD.n281 VDD.t82 102.151
R35 VDD.n146 VDD.n145 92.5005
R36 VDD.n147 VDD.n146 92.5005
R37 VDD.n132 VDD.n131 92.5005
R38 VDD.n131 VDD.n130 92.5005
R39 VDD.n235 VDD.n234 92.5005
R40 VDD.n236 VDD.n235 92.5005
R41 VDD.n228 VDD.n227 92.5005
R42 VDD.n227 VDD.n226 92.5005
R43 VDD.n195 VDD.n194 92.5005
R44 VDD.n194 VDD.n193 92.5005
R45 VDD.n189 VDD.n188 92.5005
R46 VDD.n188 VDD.n187 92.5005
R47 VDD.n206 VDD.n205 92.5005
R48 VDD.n207 VDD.n206 92.5005
R49 VDD.n210 VDD.n209 92.5005
R50 VDD.n209 VDD.n208 92.5005
R51 VDD.n221 VDD.n220 92.5005
R52 VDD.n220 VDD.n219 92.5005
R53 VDD.n224 VDD.n223 92.5005
R54 VDD.n225 VDD.n224 92.5005
R55 VDD.n239 VDD.n238 92.5005
R56 VDD.n238 VDD.n237 92.5005
R57 VDD.n171 VDD.n170 92.5005
R58 VDD.n170 VDD.n169 92.5005
R59 VDD.n99 VDD.n98 92.5005
R60 VDD.n98 VDD.n97 92.5005
R61 VDD.n246 VDD.n245 92.5005
R62 VDD.n247 VDD.n246 92.5005
R63 VDD.n250 VDD.n249 92.5005
R64 VDD.n249 VDD.n248 92.5005
R65 VDD.n111 VDD.n110 92.5005
R66 VDD.n112 VDD.n111 92.5005
R67 VDD.n115 VDD.n114 92.5005
R68 VDD.n114 VDD.n113 92.5005
R69 VDD.n122 VDD.n121 92.5005
R70 VDD.n121 VDD.n120 92.5005
R71 VDD.n156 VDD.n155 92.5005
R72 VDD.n155 VDD.n154 92.5005
R73 VDD.n152 VDD.n151 92.5005
R74 VDD.n153 VDD.n152 92.5005
R75 VDD.n129 VDD.n125 92.5005
R76 VDD.n323 VDD.n322 92.5005
R77 VDD.n322 VDD.n321 92.5005
R78 VDD.n319 VDD.n318 92.5005
R79 VDD.n318 VDD.n317 92.5005
R80 VDD.n313 VDD.n312 92.5005
R81 VDD.n312 VDD.n311 92.5005
R82 VDD.n307 VDD.n306 92.5005
R83 VDD.n306 VDD.n305 92.5005
R84 VDD.n303 VDD.n302 92.5005
R85 VDD.n302 VDD.n301 92.5005
R86 VDD.n297 VDD.n296 92.5005
R87 VDD.n296 VDD.n295 92.5005
R88 VDD.n293 VDD.n292 92.5005
R89 VDD.n292 VDD.n291 92.5005
R90 VDD.n287 VDD.n286 92.5005
R91 VDD.n286 VDD.n285 92.5005
R92 VDD.n283 VDD.n282 92.5005
R93 VDD.n282 VDD.n281 92.5005
R94 VDD.n277 VDD.n276 92.5005
R95 VDD.n276 VDD.n275 92.5005
R96 VDD.n273 VDD.n272 92.5005
R97 VDD.n272 VDD.n271 92.5005
R98 VDD.n75 VDD.n74 92.5005
R99 VDD.n74 VDD.n73 92.5005
R100 VDD.n68 VDD.n67 92.5005
R101 VDD.n67 VDD.n66 92.5005
R102 VDD.n6 VDD.n5 92.5005
R103 VDD.n5 VDD.n4 92.5005
R104 VDD.n21 VDD.n20 92.5005
R105 VDD.n20 VDD.n19 92.5005
R106 VDD.n25 VDD.n24 92.5005
R107 VDD.n24 VDD.n23 92.5005
R108 VDD.n40 VDD.n38 92.5005
R109 VDD.n38 VDD.n37 92.5005
R110 VDD.n47 VDD.n46 92.5005
R111 VDD.n46 VDD.n45 92.5005
R112 VDD.n61 VDD.n60 92.5005
R113 VDD.n60 VDD.t86 92.5005
R114 VDD.n327 VDD.n325 92.5005
R115 VDD.n285 VDD.t76 91.936
R116 VDD.t56 VDD.n225 87.4062
R117 VDD.t34 VDD.n247 85.9734
R118 VDD VDD.n207 85.9734
R119 VDD.n153 VDD.t98 84.5405
R120 VDD.n19 VDD.t18 81.7209
R121 VDD.n275 VDD.t88 81.7209
R122 VDD.t26 VDD 76.6134
R123 VDD.n291 VDD.t84 71.5059
R124 VDD.n187 VDD.t50 65.913
R125 VDD.n130 VDD.t42 63.0473
R126 VDD.t8 VDD.n112 63.0473
R127 VDD.n97 VDD.t0 63.0473
R128 VDD.n154 VDD.t40 61.6144
R129 VDD.n23 VDD.t24 61.2908
R130 VDD.n271 VDD.t80 61.2908
R131 VDD.n130 VDD.t100 57.3157
R132 VDD.n112 VDD.t32 57.3157
R133 VDD.n236 VDD.t52 57.3157
R134 VDD.n193 VDD.t16 54.45
R135 VDD.n226 VDD.t62 51.5842
R136 VDD.n208 VDD.t60 51.5842
R137 VDD.n295 VDD.t68 51.0758
R138 VDD.n321 VDD.t72 51.0758
R139 VDD.t2 VDD.n236 45.8527
R140 VDD.n219 VDD.t4 45.8527
R141 VDD.t42 VDD 42.9869
R142 VDD VDD.t8 42.9869
R143 VDD VDD.t14 42.9869
R144 VDD.n187 VDD.t46 42.9869
R145 VDD.n226 VDD 41.554
R146 VDD.n208 VDD 41.554
R147 VDD.n37 VDD.t22 40.8607
R148 VDD.n73 VDD.t90 40.8607
R149 VDD.t102 VDD.t44 40.1212
R150 VDD.t36 VDD.t6 40.1212
R151 VDD.n198 VDD.t47 36.1587
R152 VDD.n198 VDD.t17 36.1587
R153 VDD.n212 VDD.t5 36.1587
R154 VDD.n212 VDD.t61 36.1587
R155 VDD.n230 VDD.t3 36.1587
R156 VDD.n230 VDD.t63 36.1587
R157 VDD.n95 VDD.t1 36.1587
R158 VDD.n95 VDD.t7 36.1587
R159 VDD.n107 VDD.t9 36.1587
R160 VDD.n107 VDD.t11 36.1587
R161 VDD.n124 VDD.t41 36.1587
R162 VDD.n124 VDD.t45 36.1587
R163 VDD.n126 VDD.t49 36.1587
R164 VDD.n126 VDD.t39 36.1587
R165 VDD.n185 VDD.t13 36.1587
R166 VDD.n185 VDD.t51 36.1587
R167 VDD.t40 VDD.t96 34.3896
R168 VDD.t0 VDD.t30 34.3896
R169 VDD.n225 VDD.t54 32.9568
R170 VDD.n301 VDD.t64 30.6457
R171 VDD.n317 VDD.t94 30.6457
R172 VDD.n237 VDD 28.6581
R173 VDD.n127 VDD.t43 26.5955
R174 VDD.n127 VDD.t101 26.5955
R175 VDD.n148 VDD.t99 26.5955
R176 VDD.n148 VDD.t97 26.5955
R177 VDD.n108 VDD.t48 26.5955
R178 VDD.n108 VDD.t33 26.5955
R179 VDD.n93 VDD.t35 26.5955
R180 VDD.n93 VDD.t31 26.5955
R181 VDD.n174 VDD.t15 26.5955
R182 VDD.n174 VDD.t53 26.5955
R183 VDD.n179 VDD.t57 26.5955
R184 VDD.n179 VDD.t55 26.5955
R185 VDD.n315 VDD.t95 26.5955
R186 VDD.n315 VDD.t73 26.5955
R187 VDD.n309 VDD.t75 26.5955
R188 VDD.n309 VDD.t79 26.5955
R189 VDD.n299 VDD.t69 26.5955
R190 VDD.n299 VDD.t65 26.5955
R191 VDD.n289 VDD.t77 26.5955
R192 VDD.n289 VDD.t85 26.5955
R193 VDD.n279 VDD.t83 26.5955
R194 VDD.n279 VDD.t67 26.5955
R195 VDD.n269 VDD.t81 26.5955
R196 VDD.n269 VDD.t89 26.5955
R197 VDD.n64 VDD.t71 26.5955
R198 VDD.n64 VDD.t91 26.5955
R199 VDD.n58 VDD.t29 26.5955
R200 VDD.n58 VDD.t87 26.5955
R201 VDD.n35 VDD.t25 26.5955
R202 VDD.n35 VDD.t23 26.5955
R203 VDD.n17 VDD.t21 26.5955
R204 VDD.n17 VDD.t19 26.5955
R205 VDD VDD.n153 25.7924
R206 VDD VDD.n147 24.3595
R207 VDD.n154 VDD.t102 24.3595
R208 VDD.n113 VDD 24.3595
R209 VDD.n248 VDD 24.3595
R210 VDD.n247 VDD 24.3595
R211 VDD.n97 VDD.t36 22.9266
R212 VDD.n219 VDD.t58 22.9266
R213 VDD.t98 VDD 21.4937
R214 VDD VDD.t34 21.4937
R215 VDD.n193 VDD 21.4937
R216 VDD.n45 VDD.t28 20.4306
R217 VDD.n66 VDD.t70 20.4306
R218 VDD.t14 VDD.t2 17.1951
R219 VDD.t46 VDD.t12 17.1951
R220 VDD.n3 VDD.n2 14.6556
R221 VDD.n305 VDD.t74 10.2156
R222 VDD.n311 VDD.t78 10.2156
R223 VDD.t96 VDD 10.0307
R224 VDD.t30 VDD 10.0307
R225 VDD.n245 VDD.n99 9.05896
R226 VDD.n313 VDD.n310 8.53383
R227 VDD.n222 VDD.n221 7.87742
R228 VDD.n61 VDD.n59 7.7918
R229 VDD.n240 VDD.n239 7.6805
R230 VDD.n190 VDD.n189 7.6805
R231 VDD.n205 VDD.n184 7.58204
R232 VDD.n132 VDD 7.28665
R233 VDD.n110 VDD 7.28665
R234 VDD.n234 VDD 7.28665
R235 VDD.n68 VDD.n65 6.30775
R236 VDD.n181 VDD.n180 6.10512
R237 VDD.n2 VDD 5.78698
R238 VDD.t100 VDD.t38 5.73202
R239 VDD.t32 VDD.t10 5.73202
R240 VDD.n99 VDD.n96 5.71127
R241 VDD.n303 VDD.n300 5.56572
R242 VDD.n319 VDD.n316 5.56572
R243 VDD.n192 VDD.n191 4.6505
R244 VDD.n176 VDD.n172 4.6505
R245 VDD.n234 VDD.n233 4.6505
R246 VDD.n229 VDD.n228 4.6505
R247 VDD.n218 VDD.n217 4.6505
R248 VDD.n211 VDD.n210 4.6505
R249 VDD.n204 VDD.n203 4.6505
R250 VDD.n197 VDD.n196 4.6505
R251 VDD.n232 VDD.n231 4.6505
R252 VDD.n214 VDD.n213 4.6505
R253 VDD.n200 VDD.n199 4.6505
R254 VDD.n184 VDD.n182 4.6505
R255 VDD.n180 VDD.n178 4.6505
R256 VDD.n328 VDD.n327 4.6505
R257 VDD.n69 VDD.n68 4.6505
R258 VDD.n48 VDD.n47 4.6505
R259 VDD.n22 VDD.n21 4.6505
R260 VDD.n26 VDD.n25 4.6505
R261 VDD.n274 VDD.n273 4.6505
R262 VDD.n278 VDD.n277 4.6505
R263 VDD.n284 VDD.n283 4.6505
R264 VDD.n288 VDD.n287 4.6505
R265 VDD.n294 VDD.n293 4.6505
R266 VDD.n298 VDD.n297 4.6505
R267 VDD.n304 VDD.n303 4.6505
R268 VDD.n308 VDD.n307 4.6505
R269 VDD.n314 VDD.n313 4.6505
R270 VDD.n320 VDD.n319 4.6505
R271 VDD.n324 VDD.n323 4.6505
R272 VDD.n8 VDD.n7 4.5005
R273 VDD.n42 VDD.n41 4.5005
R274 VDD.n77 VDD.n76 4.5005
R275 VDD VDD.t56 4.29914
R276 VDD.n41 VDD.n36 3.52514
R277 VDD.n122 VDD.n119 3.34819
R278 VDD.n210 VDD.n183 3.34819
R279 VDD.n273 VDD.n270 3.33963
R280 VDD.n62 VDD.n61 3.03311
R281 VDD.n75 VDD.n72 2.96862
R282 VDD.n133 VDD.n125 2.8777
R283 VDD.n293 VDD.n290 2.5976
R284 VDD.n327 VDD.n326 2.5976
R285 VDD.n133 VDD.n132 2.3255
R286 VDD.n158 VDD.n157 2.3255
R287 VDD.n110 VDD.n92 2.3255
R288 VDD.n242 VDD.n99 2.3255
R289 VDD.n241 VDD.n240 2.3255
R290 VDD.n245 VDD.n244 2.3255
R291 VDD.n251 VDD.n250 2.3255
R292 VDD.n117 VDD.n116 2.3255
R293 VDD.n123 VDD.n122 2.3255
R294 VDD.n150 VDD.n102 2.3255
R295 VDD.n145 VDD.n144 2.3255
R296 VDD.n118 VDD.n106 1.94045
R297 VDD.n143 VDD.n142 1.94045
R298 VDD.n160 VDD.n159 1.94045
R299 VDD.n243 VDD.n168 1.94045
R300 VDD.n253 VDD.n252 1.94045
R301 VDD.n7 VDD.n6 1.85557
R302 VDD.n21 VDD.n18 1.85557
R303 VDD.n40 VDD.n39 1.85557
R304 VDD.n245 VDD.n94 1.77281
R305 VDD.n218 VDD.n181 1.77281
R306 VDD.n255 VDD.n254 1.7089
R307 VDD.n167 VDD.n164 1.7089
R308 VDD.n104 VDD.n89 1.70599
R309 VDD.n140 VDD.n139 1.70599
R310 VDD.n163 VDD.n162 1.70599
R311 VDD.n265 VDD.n263 1.70599
R312 VDD.n151 VDD.n149 1.67435
R313 VDD.n115 VDD 1.67435
R314 VDD.n15 VDD.n14 1.35607
R315 VDD.n267 VDD.n266 1.35607
R316 VDD.n34 VDD.n33 1.35607
R317 VDD.n57 VDD.n56 1.35607
R318 VDD.n6 VDD.n3 1.29905
R319 VDD.n41 VDD.n40 1.29905
R320 VDD VDD.n125 1.2805
R321 VDD.n173 VDD.n172 1.18204
R322 VDD.n204 VDD.n190 1.18204
R323 VDD.n223 VDD.n222 1.08358
R324 VDD.n14 VDD.n12 0.853
R325 VDD.n266 VDD.n265 0.853
R326 VDD.n33 VDD.n32 0.853
R327 VDD.n56 VDD.n55 0.853
R328 VDD.n168 VDD.n167 0.685162
R329 VDD.n254 VDD.n253 0.685162
R330 VDD.n161 VDD.n160 0.682811
R331 VDD.n142 VDD.n141 0.682811
R332 VDD.n106 VDD.n105 0.682811
R333 VDD VDD.n173 0.591269
R334 VDD.n132 VDD.n128 0.492808
R335 VDD.n110 VDD.n109 0.492808
R336 VDD.n234 VDD.n175 0.492808
R337 VDD.n191 VDD 0.492808
R338 VDD.n283 VDD.n280 0.371515
R339 VDD.n205 VDD.n204 0.295885
R340 VDD.n239 VDD.n172 0.197423
R341 VDD.n189 VDD.n186 0.197423
R342 VDD.n196 VDD.n195 0.197423
R343 VDD.n76 VDD.n75 0.186007
R344 VDD.n26 VDD.n22 0.120292
R345 VDD.n278 VDD.n274 0.120292
R346 VDD.n284 VDD.n278 0.120292
R347 VDD.n288 VDD.n284 0.120292
R348 VDD.n294 VDD.n288 0.120292
R349 VDD.n298 VDD.n294 0.120292
R350 VDD.n304 VDD.n298 0.120292
R351 VDD.n308 VDD.n304 0.120292
R352 VDD.n314 VDD.n308 0.120292
R353 VDD.n320 VDD.n314 0.120292
R354 VDD.n324 VDD.n320 0.120292
R355 VDD.n328 VDD.n324 0.120292
R356 VDD.n329 VDD.n328 0.120292
R357 VDD.n48 VDD.n44 0.107271
R358 VDD.n70 VDD.n69 0.0994583
R359 VDD.n151 VDD.n150 0.0989615
R360 VDD.n157 VDD.n156 0.0989615
R361 VDD.n116 VDD.n115 0.0989615
R362 VDD.n240 VDD.n171 0.0989615
R363 VDD.n223 VDD.n218 0.0989615
R364 VDD.n69 VDD.n63 0.0968542
R365 VDD VDD.n1 0.0877396
R366 VDD.n49 VDD.n48 0.0877396
R367 VDD.n274 VDD.n268 0.0851354
R368 VDD.n27 VDD.n26 0.0773229
R369 VDD.n22 VDD.n16 0.0734167
R370 VDD.n158 VDD.n123 0.0603958
R371 VDD.n117 VDD.n92 0.0603958
R372 VDD.n242 VDD.n241 0.0603958
R373 VDD VDD.n329 0.0603958
R374 VDD.n259 VDD.n258 0.0573462
R375 VDD.n144 VDD.n143 0.0564896
R376 VDD.n252 VDD.n251 0.0525833
R377 VDD.n233 VDD.n177 0.0525833
R378 VDD.n232 VDD.n229 0.0525833
R379 VDD.n216 VDD.n215 0.0525833
R380 VDD.n214 VDD.n211 0.0525833
R381 VDD.n202 VDD.n201 0.0525833
R382 VDD.n200 VDD.n197 0.0525833
R383 VDD VDD.n158 0.0493281
R384 VDD VDD.n242 0.0493281
R385 VDD.n14 VDD.n9 0.0429107
R386 VDD.n56 VDD.n50 0.0406786
R387 VDD.n52 VDD.n51 0.0406786
R388 VDD.n266 VDD.n79 0.0384464
R389 VDD.n33 VDD.n29 0.0362143
R390 VDD VDD.n102 0.0304479
R391 VDD VDD.n117 0.0304479
R392 VDD.n244 VDD 0.0304479
R393 VDD.n241 VDD 0.0304479
R394 VDD.n136 VDD 0.0302812
R395 VDD.n118 VDD 0.0265417
R396 VDD.n15 VDD.n8 0.0252396
R397 VDD.n57 VDD.n49 0.0239375
R398 VDD.n63 VDD.n62 0.0239375
R399 VDD.n33 VDD.n28 0.0228214
R400 VDD.n176 VDD 0.0226354
R401 VDD.n217 VDD 0.0226354
R402 VDD.n203 VDD 0.0226354
R403 VDD.n268 VDD.n267 0.0226354
R404 VDD.n42 VDD.n34 0.0213333
R405 VDD.n71 VDD.n70 0.0213333
R406 VDD.n266 VDD.n78 0.0205893
R407 VDD.n166 VDD.n165 0.0167692
R408 VDD.n162 VDD.n101 0.0167692
R409 VDD.n140 VDD.n134 0.0167692
R410 VDD.n104 VDD.n103 0.0167692
R411 VDD.n91 VDD.n90 0.0167692
R412 VDD.n32 VDD.n31 0.0167692
R413 VDD.n12 VDD.n10 0.0167692
R414 VDD.n12 VDD.n11 0.0167692
R415 VDD.n55 VDD.n54 0.0167692
R416 VDD.n265 VDD.n80 0.0167692
R417 VDD.n265 VDD.n264 0.0167692
R418 VDD.n14 VDD.n13 0.016125
R419 VDD.n56 VDD.n52 0.016125
R420 VDD.n8 VDD.n0 0.0135208
R421 VDD.n34 VDD.n27 0.0135208
R422 VDD.n44 VDD.n43 0.0135208
R423 VDD.n267 VDD.n77 0.0122188
R424 VDD.n144 VDD 0.0115677
R425 VDD.n251 VDD 0.0115677
R426 VDD VDD.n178 0.0115677
R427 VDD VDD.n182 0.0115677
R428 VDD.n192 VDD 0.0115677
R429 VDD.n1 VDD.n0 0.00961458
R430 VDD.n16 VDD.n15 0.00961458
R431 VDD.n43 VDD.n42 0.00961458
R432 VDD.n62 VDD.n57 0.00961458
R433 VDD.n32 VDD.n30 0.00911311
R434 VDD.n55 VDD.n53 0.00911311
R435 VDD.n244 VDD.n243 0.00896354
R436 VDD.n252 VDD.n92 0.0083125
R437 VDD.n177 VDD.n176 0.0083125
R438 VDD.n233 VDD.n232 0.0083125
R439 VDD.n229 VDD.n178 0.0083125
R440 VDD.n217 VDD.n216 0.0083125
R441 VDD.n215 VDD.n214 0.0083125
R442 VDD.n211 VDD.n182 0.0083125
R443 VDD.n203 VDD.n202 0.0083125
R444 VDD.n201 VDD.n200 0.0083125
R445 VDD.n197 VDD.n192 0.0083125
R446 VDD.n159 VDD 0.00766146
R447 VDD.n143 VDD.n133 0.00440625
R448 VDD.n159 VDD.n102 0.00440625
R449 VDD.n123 VDD.n118 0.00440625
R450 VDD.n162 VDD.n161 0.00419645
R451 VDD.n141 VDD.n140 0.00419645
R452 VDD.n105 VDD.n104 0.00419645
R453 VDD.n243 VDD 0.00310417
R454 VDD.n167 VDD.n166 0.00284309
R455 VDD.n254 VDD.n91 0.00284309
R456 VDD.n263 VDD.n262 0.00228535
R457 VDD.n139 VDD.n138 0.00228535
R458 VDD.n77 VDD.n71 0.00180208
R459 VDD.n84 VDD.n83 0.00171259
R460 VDD.n256 VDD.n255 0.00171259
R461 VDD.n87 VDD.n86 0.00107275
R462 VDD.n86 VDD.n85 0.00102425
R463 VDD.n263 VDD.n88 0.00102425
R464 VDD.n255 VDD.n89 0.00102425
R465 VDD.n164 VDD.n163 0.00102425
R466 VDD.n139 VDD.n135 0.00102425
R467 VDD.n164 VDD.n89 0.00102425
R468 VDD.n163 VDD.n100 0.00102425
R469 VDD.n257 VDD.n256 0.000645511
R470 VDD.n137 VDD.n136 0.000645511
R471 VDD.n82 VDD.n81 0.000597007
R472 VDD.n261 VDD.n260 0.000597007
R473 VDD.n135 VDD.n100 0.000597007
R474 VDD.n83 VDD.n82 0.000548504
R475 VDD.n85 VDD.n84 0.000548504
R476 VDD.n88 VDD.n87 0.000548504
R477 VDD.n262 VDD.n261 0.000548504
R478 VDD.n260 VDD.n259 0.000548504
R479 VDD.n258 VDD.n257 0.000548504
R480 VDD.n138 VDD.n137 0.000548504
R481 sw<6>.n2 sw<6>.n0 146.811
R482 sw<6>.n14 sw<6>.n13 108.412
R483 sw<6>.n2 sw<6>.n1 108.412
R484 sw<6>.n4 sw<6>.n3 108.412
R485 sw<6>.n6 sw<6>.n5 108.412
R486 sw<6>.n8 sw<6>.n7 108.412
R487 sw<6>.n10 sw<6>.n9 108.412
R488 sw<6>.n12 sw<6>.n11 108.412
R489 sw<6>.n17 sw<6>.n15 90.8321
R490 sw<6>.n17 sw<6>.n16 52.4321
R491 sw<6>.n19 sw<6>.n18 52.4321
R492 sw<6>.n21 sw<6>.n20 52.4321
R493 sw<6>.n23 sw<6>.n22 52.4321
R494 sw<6>.n25 sw<6>.n24 52.4321
R495 sw<6>.n27 sw<6>.n26 52.4321
R496 sw<6>.n29 sw<6>.n28 52.4321
R497 sw<6> sw<6>.n29 40.4711
R498 sw<6>.n4 sw<6>.n2 38.4005
R499 sw<6>.n6 sw<6>.n4 38.4005
R500 sw<6>.n8 sw<6>.n6 38.4005
R501 sw<6>.n10 sw<6>.n8 38.4005
R502 sw<6>.n12 sw<6>.n10 38.4005
R503 sw<6>.n14 sw<6>.n12 38.4005
R504 sw<6>.n19 sw<6>.n17 38.4005
R505 sw<6>.n21 sw<6>.n19 38.4005
R506 sw<6>.n23 sw<6>.n21 38.4005
R507 sw<6>.n25 sw<6>.n23 38.4005
R508 sw<6>.n27 sw<6>.n25 38.4005
R509 sw<6>.n29 sw<6>.n27 38.4005
R510 sw<6> sw<6>.n14 33.7342
R511 sw<6>.n0 sw<6>.t23 26.5955
R512 sw<6>.n0 sw<6>.t15 26.5955
R513 sw<6>.n1 sw<6>.t25 26.5955
R514 sw<6>.n1 sw<6>.t20 26.5955
R515 sw<6>.n3 sw<6>.t24 26.5955
R516 sw<6>.n3 sw<6>.t21 26.5955
R517 sw<6>.n5 sw<6>.t13 26.5955
R518 sw<6>.n5 sw<6>.t18 26.5955
R519 sw<6>.n7 sw<6>.t22 26.5955
R520 sw<6>.n7 sw<6>.t14 26.5955
R521 sw<6>.n9 sw<6>.t12 26.5955
R522 sw<6>.n9 sw<6>.t17 26.5955
R523 sw<6>.n11 sw<6>.t19 26.5955
R524 sw<6>.n11 sw<6>.t27 26.5955
R525 sw<6>.n13 sw<6>.t16 26.5955
R526 sw<6>.n13 sw<6>.t26 26.5955
R527 sw<6>.n15 sw<6>.t8 24.9236
R528 sw<6>.n15 sw<6>.t9 24.9236
R529 sw<6>.n16 sw<6>.t10 24.9236
R530 sw<6>.n16 sw<6>.t5 24.9236
R531 sw<6>.n18 sw<6>.t11 24.9236
R532 sw<6>.n18 sw<6>.t0 24.9236
R533 sw<6>.n20 sw<6>.t2 24.9236
R534 sw<6>.n20 sw<6>.t31 24.9236
R535 sw<6>.n22 sw<6>.t28 24.9236
R536 sw<6>.n22 sw<6>.t1 24.9236
R537 sw<6>.n24 sw<6>.t29 24.9236
R538 sw<6>.n24 sw<6>.t30 24.9236
R539 sw<6>.n26 sw<6>.t3 24.9236
R540 sw<6>.n26 sw<6>.t6 24.9236
R541 sw<6>.n28 sw<6>.t7 24.9236
R542 sw<6>.n28 sw<6>.t4 24.9236
R543 sw<6>.n30 sw<6> 8.08471
R544 sw<6> sw<6>.n30 3.83425
R545 sw<6>.n30 sw<6> 3.36892
R546 sw<5>.n5 sw<5>.n3 197.595
R547 sw<5> sw<5>.n4 165.219
R548 sw<5>.n2 sw<5>.n0 138.054
R549 sw<5>.n2 sw<5>.n1 107.874
R550 sw<5>.n3 sw<5>.t4 26.5955
R551 sw<5>.n3 sw<5>.t5 26.5955
R552 sw<5>.n4 sw<5>.t3 26.5955
R553 sw<5>.n4 sw<5>.t6 26.5955
R554 sw<5>.n0 sw<5>.t1 24.9236
R555 sw<5>.n0 sw<5>.t7 24.9236
R556 sw<5>.n1 sw<5>.t0 24.9236
R557 sw<5>.n1 sw<5>.t2 24.9236
R558 sw<5>.n6 sw<5> 6.98232
R559 sw<5> sw<5>.n5 6.59444
R560 sw<5> sw<5>.n6 3.83425
R561 sw<5> sw<5>.n2 2.97424
R562 sw<5>.n5 sw<5> 2.19848
R563 sw<5>.n6 sw<5> 1.8106
R564 VSS.n198 VSS 896.297
R565 VSS.n225 VSS 896.297
R566 VSS.n257 VSS 896.297
R567 VSS VSS.n265 896.297
R568 VSS.n187 VSS.t52 711.548
R569 VSS.n184 VSS.t23 512.169
R570 VSS.n199 VSS.t18 512.169
R571 VSS.n199 VSS.t46 512.169
R572 VSS.n212 VSS.t6 512.169
R573 VSS.n212 VSS.t54 512.169
R574 VSS.n226 VSS.t15 512.169
R575 VSS.n226 VSS.t4 512.169
R576 VSS.n249 VSS.t0 512.169
R577 VSS.n249 VSS.t56 512.169
R578 VSS.n274 VSS.t2 512.169
R579 VSS.n274 VSS.t8 512.169
R580 VSS.n291 VSS.t48 512.169
R581 VSS.n291 VSS.t93 512.169