* NGSPICE file created from hgu_cdac_half_flat.ext - technology: sky130A

.subckt hgu_cdac_half_flat d<3> d<2> d<1> d<0> d<5> db<0> db<1> db<2> db<3> tb<1>
+ tb<2> tb<3> tb<4> VREF t<1> t<2> t<3> t<4> d<6> db<6> db<5> d<4> db<4> tb<0> tb<5>
+ t<0> t<5> t<6> tb<6> VDD VSS
X0 VREF.t235 d<3>.t0 hgu_cdac_8bit_array_3.drv<7:0>.t5 VDD.t147 sky130_fd_pr__pfet_01v8_lvt ad=0.122 pd=1.13 as=0.122 ps=1.13 w=0.84 l=0.35
X1 VREF.t35 db<3>.t0 hgu_cdac_8bit_array_2.drv<7:0>.t15 VDD.t35 sky130_fd_pr__pfet_01v8_lvt ad=0.244 pd=2.26 as=0.122 ps=1.13 w=0.84 l=0.35
X2 hgu_cdac_8bit_array_2.drv<31:0>.t43 db<5>.t0 VREF.t56 VDD.t56 sky130_fd_pr__pfet_01v8_lvt ad=0.122 pd=1.13 as=0.122 ps=1.13 w=0.84 l=0.35
X3 hgu_cdac_8bit_array_3.drv<63:0>.t89 d<6>.t0 VREF.t217 VDD.t216 sky130_fd_pr__pfet_01v8_lvt ad=0.122 pd=1.13 as=0.244 ps=2.26 w=0.84 l=0.35
X4 VREF.t63 d<5>.t0 hgu_cdac_8bit_array_3.drv<31:0>.t46 VDD.t63 sky130_fd_pr__pfet_01v8_lvt ad=0.122 pd=1.13 as=0.122 ps=1.13 w=0.84 l=0.35
X5 hgu_cdac_8bit_array_3.drv<63:0>.t20 d<6>.t1 VSS.t345 VSS.t344 sky130_fd_pr__nfet_01v8_lvt ad=0.0609 pd=0.71 as=0.0609 ps=0.71 w=0.42 l=0.35
X6 hgu_cdac_8bit_array_3.drv<31:0>.t9 d<5>.t1 VSS.t161 VSS.t160 sky130_fd_pr__nfet_01v8_lvt ad=0.0609 pd=0.71 as=0.0609 ps=0.71 w=0.42 l=0.35
X7 VSS.t397 db<6>.t0 hgu_cdac_8bit_array_2.drv<63:0>.t127 VSS.t396 sky130_fd_pr__nfet_01v8_lvt ad=0.0609 pd=0.71 as=0.0609 ps=0.71 w=0.42 l=0.35
X8 VREF.t190 db<6>.t1 hgu_cdac_8bit_array_2.drv<63:0>.t63 VDD.t189 sky130_fd_pr__pfet_01v8_lvt ad=0.122 pd=1.13 as=0.122 ps=1.13 w=0.84 l=0.35
X9 hgu_cdac_8bit_array_3.drv<63:0>.t127 d<6>.t2 VSS.t343 VSS.t342 sky130_fd_pr__nfet_01v8_lvt ad=0.0609 pd=0.71 as=0.0609 ps=0.71 w=0.42 l=0.35
X10 VREF.t144 d<4>.t0 hgu_cdac_8bit_array_3.drv<15:0>.t15 VDD.t144 sky130_fd_pr__pfet_01v8_lvt ad=0.122 pd=1.13 as=0.122 ps=1.13 w=0.84 l=0.35
X11 VSS.t63 db<5>.t1 hgu_cdac_8bit_array_2.drv<31:0>.t0 VSS.t62 sky130_fd_pr__nfet_01v8_lvt ad=0.0609 pd=0.71 as=0.0609 ps=0.71 w=0.42 l=0.35
X12 hgu_cdac_8bit_array_3.drv<63:0>.t88 d<6>.t3 VREF.t121 VDD.t121 sky130_fd_pr__pfet_01v8_lvt ad=0.122 pd=1.13 as=0.122 ps=1.13 w=0.84 l=0.35
X13 VREF.t122 d<6>.t4 hgu_cdac_8bit_array_3.drv<63:0>.t87 VDD.t122 sky130_fd_pr__pfet_01v8_lvt ad=0.122 pd=1.13 as=0.122 ps=1.13 w=0.84 l=0.35
X14 VSS.t399 db<6>.t2 hgu_cdac_8bit_array_2.drv<63:0>.t126 VSS.t398 sky130_fd_pr__nfet_01v8_lvt ad=0.0609 pd=0.71 as=0.0609 ps=0.71 w=0.42 l=0.35
X15 hgu_cdac_8bit_array_3.drv<31:0>.t45 d<5>.t2 VREF.t42 VDD.t42 sky130_fd_pr__pfet_01v8_lvt ad=0.122 pd=1.13 as=0.122 ps=1.13 w=0.84 l=0.35
X16 VREF.t234 d<3>.t1 hgu_cdac_8bit_array_3.drv<7:0>.t4 VDD.t230 sky130_fd_pr__pfet_01v8_lvt ad=0.122 pd=1.13 as=0.122 ps=1.13 w=0.84 l=0.35
X17 hgu_cdac_8bit_array_3.drv<1:0>.t3 d<1> VSS.t391 VSS.t390 sky130_fd_pr__nfet_01v8_lvt ad=0.0609 pd=0.71 as=0.122 ps=1.42 w=0.42 l=0.35
X18 hgu_cdac_8bit_array_3.drv<15:0>.t31 d<4>.t1 VSS.t369 VSS.t368 sky130_fd_pr__nfet_01v8_lvt ad=0.0609 pd=0.71 as=0.0609 ps=0.71 w=0.42 l=0.35
X19 VSS.t193 db<6>.t3 hgu_cdac_8bit_array_2.drv<63:0>.t125 VSS.t192 sky130_fd_pr__nfet_01v8_lvt ad=0.0609 pd=0.71 as=0.0609 ps=0.71 w=0.42 l=0.35
X20 hgu_cdac_8bit_array_3.drv<31:0>.t8 d<5>.t3 VSS.t159 VSS.t158 sky130_fd_pr__nfet_01v8_lvt ad=0.0609 pd=0.71 as=0.0609 ps=0.71 w=0.42 l=0.35
X21 VREF.t86 db<6>.t4 hgu_cdac_8bit_array_2.drv<63:0>.t62 VDD.t86 sky130_fd_pr__pfet_01v8_lvt ad=0.122 pd=1.13 as=0.122 ps=1.13 w=0.84 l=0.35
X22 hgu_cdac_8bit_array_2.drv<15:0>.t15 db<4>.t0 VREF.t112 VDD.t112 sky130_fd_pr__pfet_01v8_lvt ad=0.122 pd=1.13 as=0.122 ps=1.13 w=0.84 l=0.35
X23 hgu_cdac_8bit_array_3.drv<63:0>.t126 d<6>.t5 VSS.t341 VSS.t340 sky130_fd_pr__nfet_01v8_lvt ad=0.0609 pd=0.71 as=0.0609 ps=0.71 w=0.42 l=0.35
X24 VSS.t207 db<4>.t1 hgu_cdac_8bit_array_2.drv<15:0>.t31 VSS.t206 sky130_fd_pr__nfet_01v8_lvt ad=0.0609 pd=0.71 as=0.0609 ps=0.71 w=0.42 l=0.35
X25 VSS.t61 db<5>.t2 hgu_cdac_8bit_array_2.drv<31:0>.t10 VSS.t60 sky130_fd_pr__nfet_01v8_lvt ad=0.0609 pd=0.71 as=0.0609 ps=0.71 w=0.42 l=0.35
X26 VREF.t44 d<6>.t6 hgu_cdac_8bit_array_3.drv<63:0>.t86 VDD.t44 sky130_fd_pr__pfet_01v8_lvt ad=0.122 pd=1.13 as=0.122 ps=1.13 w=0.84 l=0.35
X27 hgu_cdac_8bit_array_3.drv<15:0>.t14 d<4>.t2 VREF.t218 VDD.t217 sky130_fd_pr__pfet_01v8_lvt ad=0.122 pd=1.13 as=0.244 ps=2.26 w=0.84 l=0.35
X28 hgu_cdac_8bit_array_3.drv<15:0>.t30 d<4>.t3 VSS.t439 VSS.t438 sky130_fd_pr__nfet_01v8_lvt ad=0.0609 pd=0.71 as=0.0609 ps=0.71 w=0.42 l=0.35
X29 hgu_cdac_8bit_array_2.drv<63:0>.t124 db<6>.t5 VSS.t169 VSS.t168 sky130_fd_pr__nfet_01v8_lvt ad=0.0609 pd=0.71 as=0.0609 ps=0.71 w=0.42 l=0.35
X30 hgu_cdac_8bit_array_2.drv<63:0>.t61 db<6>.t6 VREF.t203 VDD.t202 sky130_fd_pr__pfet_01v8_lvt ad=0.122 pd=1.13 as=0.122 ps=1.13 w=0.84 l=0.35
X31 hgu_cdac_8bit_array_2.drv<1:0>.t3 db<1>.t0 VSS.t465 VSS.t464 sky130_fd_pr__nfet_01v8_lvt ad=0.0609 pd=0.71 as=0.122 ps=1.42 w=0.42 l=0.35
X32 VSS.t339 d<6>.t7 hgu_cdac_8bit_array_3.drv<63:0>.t125 VSS.t338 sky130_fd_pr__nfet_01v8_lvt ad=0.0609 pd=0.71 as=0.0609 ps=0.71 w=0.42 l=0.35
X33 VREF.t156 db<6>.t7 hgu_cdac_8bit_array_2.drv<63:0>.t60 VDD.t156 sky130_fd_pr__pfet_01v8_lvt ad=0.122 pd=1.13 as=0.122 ps=1.13 w=0.84 l=0.35
X34 hgu_cdac_8bit_array_3.drv<63:0>.t85 d<6>.t8 VREF.t9 VDD.t9 sky130_fd_pr__pfet_01v8_lvt ad=0.122 pd=1.13 as=0.122 ps=1.13 w=0.84 l=0.35
X35 hgu_cdac_8bit_array_2.drv<7:0>.t3 db<3>.t1 VSS.t493 VSS.t492 sky130_fd_pr__nfet_01v8_lvt ad=0.0609 pd=0.71 as=0.0609 ps=0.71 w=0.42 l=0.35
X36 hgu_cdac_8bit_array_2.drv<31:0>.t42 db<5>.t3 VREF.t174 VDD.t174 sky130_fd_pr__pfet_01v8_lvt ad=0.122 pd=1.13 as=0.122 ps=1.13 w=0.84 l=0.35
X37 VSS.t199 db<6>.t8 hgu_cdac_8bit_array_2.drv<63:0>.t123 VSS.t198 sky130_fd_pr__nfet_01v8_lvt ad=0.0609 pd=0.71 as=0.0609 ps=0.71 w=0.42 l=0.35
X38 VREF.t175 db<6>.t9 hgu_cdac_8bit_array_2.drv<63:0>.t59 VDD.t175 sky130_fd_pr__pfet_01v8_lvt ad=0.122 pd=1.13 as=0.122 ps=1.13 w=0.84 l=0.35
X39 VREF.t48 d<6>.t9 hgu_cdac_8bit_array_3.drv<63:0>.t84 VDD.t48 sky130_fd_pr__pfet_01v8_lvt ad=0.122 pd=1.13 as=0.122 ps=1.13 w=0.84 l=0.35
X40 hgu_cdac_8bit_array_2.drv<63:0>.t122 db<6>.t10 VSS.t201 VSS.t200 sky130_fd_pr__nfet_01v8_lvt ad=0.0609 pd=0.71 as=0.0609 ps=0.71 w=0.42 l=0.35
X41 hgu_cdac_8bit_array_3.drv<63:0>.t124 d<6>.t10 VSS.t337 VSS.t336 sky130_fd_pr__nfet_01v8_lvt ad=0.0609 pd=0.71 as=0.0609 ps=0.71 w=0.42 l=0.35
X42 VREF.t17 d<5>.t4 hgu_cdac_8bit_array_3.drv<31:0>.t44 VDD.t17 sky130_fd_pr__pfet_01v8_lvt ad=0.122 pd=1.13 as=0.122 ps=1.13 w=0.84 l=0.35
X43 hgu_cdac_8bit_array_2.drv<7:0>.t14 db<3>.t2 VREF.t88 VDD.t88 sky130_fd_pr__pfet_01v8_lvt ad=0.122 pd=1.13 as=0.244 ps=2.26 w=0.84 l=0.35
X44 VREF.t250 db<2>.t0 hgu_cdac_8bit_array_2.hgu_cdac_cap_4_0.CBOT.t3 VDD.t245 sky130_fd_pr__pfet_01v8_lvt ad=0.122 pd=1.13 as=0.122 ps=1.13 w=0.84 l=0.35
X45 VSS.t335 d<6>.t11 hgu_cdac_8bit_array_3.drv<63:0>.t123 VSS.t334 sky130_fd_pr__nfet_01v8_lvt ad=0.0609 pd=0.71 as=0.0609 ps=0.71 w=0.42 l=0.35
X46 VSS.t157 d<5>.t5 hgu_cdac_8bit_array_3.drv<31:0>.t7 VSS.t156 sky130_fd_pr__nfet_01v8_lvt ad=0.0609 pd=0.71 as=0.0609 ps=0.71 w=0.42 l=0.35
X47 hgu_cdac_8bit_array_3.drv<7:0>.t10 d<3>.t2 VSS.t463 VSS.t462 sky130_fd_pr__nfet_01v8_lvt ad=0.0609 pd=0.71 as=0.0609 ps=0.71 w=0.42 l=0.35
X48 hgu_cdac_8bit_array_3.drv<63:0>.t83 d<6>.t12 VREF.t143 VDD.t143 sky130_fd_pr__pfet_01v8_lvt ad=0.122 pd=1.13 as=0.122 ps=1.13 w=0.84 l=0.35
X49 VSS.t167 db<6>.t11 hgu_cdac_8bit_array_2.drv<63:0>.t121 VSS.t166 sky130_fd_pr__nfet_01v8_lvt ad=0.0609 pd=0.71 as=0.0609 ps=0.71 w=0.42 l=0.35
X50 hgu_cdac_8bit_array_3.drv<31:0>.t6 d<5>.t6 VSS.t155 VSS.t154 sky130_fd_pr__nfet_01v8_lvt ad=0.0609 pd=0.71 as=0.0609 ps=0.71 w=0.42 l=0.35
X51 VREF.t221 d<6>.t13 hgu_cdac_8bit_array_3.drv<63:0>.t82 VDD.t220 sky130_fd_pr__pfet_01v8_lvt ad=0.122 pd=1.13 as=0.122 ps=1.13 w=0.84 l=0.35
X52 hgu_cdac_8bit_array_3.drv<63:0>.t122 d<6>.t14 VSS.t333 VSS.t332 sky130_fd_pr__nfet_01v8_lvt ad=0.0609 pd=0.71 as=0.0609 ps=0.71 w=0.42 l=0.35
X53 hgu_cdac_8bit_array_3.drv<63:0>.t116 d<6>.t15 VSS.t331 VSS.t330 sky130_fd_pr__nfet_01v8_lvt ad=0.0609 pd=0.71 as=0.0609 ps=0.71 w=0.42 l=0.35
X54 VSS.t59 db<5>.t4 hgu_cdac_8bit_array_2.drv<31:0>.t9 VSS.t58 sky130_fd_pr__nfet_01v8_lvt ad=0.0609 pd=0.71 as=0.0609 ps=0.71 w=0.42 l=0.35
X55 VREF.t85 db<6>.t12 hgu_cdac_8bit_array_2.drv<63:0>.t58 VDD.t85 sky130_fd_pr__pfet_01v8_lvt ad=0.122 pd=1.13 as=0.122 ps=1.13 w=0.84 l=0.35
X56 VREF.t189 d<6>.t16 hgu_cdac_8bit_array_3.drv<63:0>.t81 VDD.t188 sky130_fd_pr__pfet_01v8_lvt ad=0.122 pd=1.13 as=0.122 ps=1.13 w=0.84 l=0.35
X57 hgu_cdac_8bit_array_3.drv<31:0>.t43 d<5>.t7 VREF.t149 VDD.t149 sky130_fd_pr__pfet_01v8_lvt ad=0.122 pd=1.13 as=0.122 ps=1.13 w=0.84 l=0.35
X58 hgu_cdac_8bit_array_2.drv<63:0>.t120 db<6>.t13 VSS.t443 VSS.t442 sky130_fd_pr__nfet_01v8_lvt ad=0.0609 pd=0.71 as=0.0609 ps=0.71 w=0.42 l=0.35
X59 hgu_cdac_8bit_array_2.drv<31:0>.t41 db<5>.t5 VREF.t104 VDD.t104 sky130_fd_pr__pfet_01v8_lvt ad=0.122 pd=1.13 as=0.122 ps=1.13 w=0.84 l=0.35
X60 hgu_cdac_8bit_array_2.hgu_cdac_cap_4_0.CBOT.t7 db<2>.t1 VSS.t73 VSS.t72 sky130_fd_pr__nfet_01v8_lvt ad=0.0609 pd=0.71 as=0.0609 ps=0.71 w=0.42 l=0.35
X61 VREF.t106 db<6>.t14 hgu_cdac_8bit_array_2.drv<63:0>.t57 VDD.t106 sky130_fd_pr__pfet_01v8_lvt ad=0.244 pd=2.26 as=0.122 ps=1.13 w=0.84 l=0.35
X62 hgu_cdac_8bit_array_2.drv<0>.t1 db<0>.t0 VSS.t347 VSS.t346 sky130_fd_pr__nfet_01v8_lvt ad=0.122 pd=1.42 as=0.122 ps=1.42 w=0.42 l=0.35
X63 hgu_cdac_8bit_array_3.drv<63:0>.t115 d<6>.t17 VSS.t329 VSS.t328 sky130_fd_pr__nfet_01v8_lvt ad=0.0609 pd=0.71 as=0.0609 ps=0.71 w=0.42 l=0.35
X64 VSS.t57 db<5>.t6 hgu_cdac_8bit_array_2.drv<31:0>.t8 VSS.t56 sky130_fd_pr__nfet_01v8_lvt ad=0.0609 pd=0.71 as=0.0609 ps=0.71 w=0.42 l=0.35
X65 VREF.t195 db<6>.t15 hgu_cdac_8bit_array_2.drv<63:0>.t56 VDD.t194 sky130_fd_pr__pfet_01v8_lvt ad=0.122 pd=1.13 as=0.122 ps=1.13 w=0.84 l=0.35
X66 VREF.t177 d<6>.t18 hgu_cdac_8bit_array_3.drv<63:0>.t80 VDD.t177 sky130_fd_pr__pfet_01v8_lvt ad=0.122 pd=1.13 as=0.122 ps=1.13 w=0.84 l=0.35
X67 hgu_cdac_8bit_array_3.drv<15:0>.t13 d<4>.t4 VREF.t2 VDD.t2 sky130_fd_pr__pfet_01v8_lvt ad=0.122 pd=1.13 as=0.122 ps=1.13 w=0.84 l=0.35
X68 VREF.t205 d<6>.t19 hgu_cdac_8bit_array_3.drv<63:0>.t79 VDD.t204 sky130_fd_pr__pfet_01v8_lvt ad=0.122 pd=1.13 as=0.122 ps=1.13 w=0.84 l=0.35
X69 VREF.t206 d<5>.t8 hgu_cdac_8bit_array_3.drv<31:0>.t42 VDD.t205 sky130_fd_pr__pfet_01v8_lvt ad=0.122 pd=1.13 as=0.122 ps=1.13 w=0.84 l=0.35
X70 VSS.t379 d<4>.t5 hgu_cdac_8bit_array_3.drv<15:0>.t29 VSS.t378 sky130_fd_pr__nfet_01v8_lvt ad=0.0609 pd=0.71 as=0.0609 ps=0.71 w=0.42 l=0.35
X71 hgu_cdac_8bit_array_2.drv<63:0>.t119 db<6>.t16 VSS.t409 VSS.t408 sky130_fd_pr__nfet_01v8_lvt ad=0.0609 pd=0.71 as=0.0609 ps=0.71 w=0.42 l=0.35
X72 VREF.t253 db<4>.t2 hgu_cdac_8bit_array_2.drv<15:0>.t14 VDD.t248 sky130_fd_pr__pfet_01v8_lvt ad=0.122 pd=1.13 as=0.122 ps=1.13 w=0.84 l=0.35
X73 VREF.t47 d<6>.t20 hgu_cdac_8bit_array_3.drv<63:0>.t78 VDD.t47 sky130_fd_pr__pfet_01v8_lvt ad=0.122 pd=1.13 as=0.122 ps=1.13 w=0.84 l=0.35
X74 VREF.t161 db<5>.t7 hgu_cdac_8bit_array_2.drv<31:0>.t40 VDD.t161 sky130_fd_pr__pfet_01v8_lvt ad=0.122 pd=1.13 as=0.122 ps=1.13 w=0.84 l=0.35
X75 hgu_cdac_8bit_array_3.hgu_cdac_cap_4_0.CBOT.t7 d<2>.t0 VSS.t423 VSS.t422 sky130_fd_pr__nfet_01v8_lvt ad=0.0609 pd=0.71 as=0.0609 ps=0.71 w=0.42 l=0.35
X76 hgu_cdac_8bit_array_2.drv<63:0>.t118 db<6>.t17 VSS.t431 VSS.t430 sky130_fd_pr__nfet_01v8_lvt ad=0.0609 pd=0.71 as=0.0609 ps=0.71 w=0.42 l=0.35
X77 hgu_cdac_8bit_array_2.drv<63:0>.t55 db<6>.t18 VREF.t211 VDD.t210 sky130_fd_pr__pfet_01v8_lvt ad=0.122 pd=1.13 as=0.122 ps=1.13 w=0.84 l=0.35
X78 VREF.t202 d<4>.t6 hgu_cdac_8bit_array_3.drv<15:0>.t12 VDD.t201 sky130_fd_pr__pfet_01v8_lvt ad=0.122 pd=1.13 as=0.122 ps=1.13 w=0.84 l=0.35
X79 VREF.t38 db<6>.t19 hgu_cdac_8bit_array_2.drv<63:0>.t54 VDD.t38 sky130_fd_pr__pfet_01v8_lvt ad=0.122 pd=1.13 as=0.122 ps=1.13 w=0.84 l=0.35
X80 VSS.t327 d<6>.t21 hgu_cdac_8bit_array_3.drv<63:0>.t114 VSS.t326 sky130_fd_pr__nfet_01v8_lvt ad=0.0609 pd=0.71 as=0.0609 ps=0.71 w=0.42 l=0.35
X81 hgu_cdac_8bit_array_2.drv<15:0>.t30 db<4>.t3 VSS.t507 VSS.t506 sky130_fd_pr__nfet_01v8_lvt ad=0.0609 pd=0.71 as=0.0609 ps=0.71 w=0.42 l=0.35
X82 VREF.t135 d<6>.t22 hgu_cdac_8bit_array_3.drv<63:0>.t77 VDD.t135 sky130_fd_pr__pfet_01v8_lvt ad=0.122 pd=1.13 as=0.122 ps=1.13 w=0.84 l=0.35
X83 VSS.t501 d<4>.t7 hgu_cdac_8bit_array_3.drv<15:0>.t28 VSS.t500 sky130_fd_pr__nfet_01v8_lvt ad=0.0609 pd=0.71 as=0.0609 ps=0.71 w=0.42 l=0.35
X84 hgu_cdac_8bit_array_3.drv<63:0>.t113 d<6>.t23 VSS.t325 VSS.t324 sky130_fd_pr__nfet_01v8_lvt ad=0.0609 pd=0.71 as=0.0609 ps=0.71 w=0.42 l=0.35
X85 hgu_cdac_8bit_array_2.drv<31:0>.t39 db<5>.t8 VREF.t162 VDD.t162 sky130_fd_pr__pfet_01v8_lvt ad=0.122 pd=1.13 as=0.244 ps=2.26 w=0.84 l=0.35
X86 VREF.t53 d<5>.t9 hgu_cdac_8bit_array_3.drv<31:0>.t41 VDD.t53 sky130_fd_pr__pfet_01v8_lvt ad=0.122 pd=1.13 as=0.122 ps=1.13 w=0.84 l=0.35
X87 hgu_cdac_8bit_array_3.drv<31:0>.t5 d<5>.t10 VSS.t153 VSS.t152 sky130_fd_pr__nfet_01v8_lvt ad=0.0609 pd=0.71 as=0.122 ps=1.42 w=0.42 l=0.35
X88 VREF.t1 db<4>.t4 hgu_cdac_8bit_array_2.drv<15:0>.t13 VDD.t1 sky130_fd_pr__pfet_01v8_lvt ad=0.122 pd=1.13 as=0.122 ps=1.13 w=0.84 l=0.35
X89 VREF.t91 db<5>.t9 hgu_cdac_8bit_array_2.drv<31:0>.t38 VDD.t91 sky130_fd_pr__pfet_01v8_lvt ad=0.122 pd=1.13 as=0.122 ps=1.13 w=0.84 l=0.35
X90 VREF.t43 d<6>.t24 hgu_cdac_8bit_array_3.drv<63:0>.t76 VDD.t43 sky130_fd_pr__pfet_01v8_lvt ad=0.122 pd=1.13 as=0.122 ps=1.13 w=0.84 l=0.35
X91 VSS.t323 d<6>.t25 hgu_cdac_8bit_array_3.drv<63:0>.t112 VSS.t322 sky130_fd_pr__nfet_01v8_lvt ad=0.0609 pd=0.71 as=0.0609 ps=0.71 w=0.42 l=0.35
X92 hgu_cdac_8bit_array_2.drv<63:0>.t117 db<6>.t20 VSS.t89 VSS.t88 sky130_fd_pr__nfet_01v8_lvt ad=0.0609 pd=0.71 as=0.0609 ps=0.71 w=0.42 l=0.35
X93 VSS.t151 d<5>.t11 hgu_cdac_8bit_array_3.drv<31:0>.t4 VSS.t150 sky130_fd_pr__nfet_01v8_lvt ad=0.0609 pd=0.71 as=0.0609 ps=0.71 w=0.42 l=0.35
X94 hgu_cdac_8bit_array_3.drv<63:0>.t94 d<6>.t26 VSS.t321 VSS.t320 sky130_fd_pr__nfet_01v8_lvt ad=0.0609 pd=0.71 as=0.0609 ps=0.71 w=0.42 l=0.35
X95 hgu_cdac_8bit_array_2.drv<63:0>.t53 db<6>.t21 VREF.t148 VDD.t148 sky130_fd_pr__pfet_01v8_lvt ad=0.122 pd=1.13 as=0.122 ps=1.13 w=0.84 l=0.35
X96 hgu_cdac_8bit_array_3.drv<63:0>.t75 d<6>.t27 VREF.t140 VDD.t140 sky130_fd_pr__pfet_01v8_lvt ad=0.122 pd=1.13 as=0.122 ps=1.13 w=0.84 l=0.35
X97 VSS.t371 db<6>.t22 hgu_cdac_8bit_array_2.drv<63:0>.t116 VSS.t370 sky130_fd_pr__nfet_01v8_lvt ad=0.0609 pd=0.71 as=0.0609 ps=0.71 w=0.42 l=0.35
X98 hgu_cdac_8bit_array_2.drv<15:0>.t29 db<4>.t5 VSS.t429 VSS.t428 sky130_fd_pr__nfet_01v8_lvt ad=0.0609 pd=0.71 as=0.122 ps=1.42 w=0.42 l=0.35
X99 VREF.t184 d<1> hgu_cdac_8bit_array_3.drv<1:0>.t1 VDD.t155 sky130_fd_pr__pfet_01v8_lvt ad=0.244 pd=2.26 as=0.122 ps=1.13 w=0.84 l=0.35
X100 hgu_cdac_8bit_array_2.drv<15:0>.t28 db<4>.t6 VSS.t191 VSS.t190 sky130_fd_pr__nfet_01v8_lvt ad=0.0609 pd=0.71 as=0.0609 ps=0.71 w=0.42 l=0.35
X101 hgu_cdac_8bit_array_2.drv<31:0>.t7 db<5>.t10 VSS.t55 VSS.t54 sky130_fd_pr__nfet_01v8_lvt ad=0.0609 pd=0.71 as=0.0609 ps=0.71 w=0.42 l=0.35
X102 VREF.t147 db<3>.t3 hgu_cdac_8bit_array_2.drv<7:0>.t13 VDD.t147 sky130_fd_pr__pfet_01v8_lvt ad=0.122 pd=1.13 as=0.122 ps=1.13 w=0.84 l=0.35
X103 hgu_cdac_8bit_array_3.drv<63:0>.t74 d<6>.t28 VREF.t45 VDD.t45 sky130_fd_pr__pfet_01v8_lvt ad=0.122 pd=1.13 as=0.122 ps=1.13 w=0.84 l=0.35
X104 VREF.t55 d<5>.t12 hgu_cdac_8bit_array_3.drv<31:0>.t40 VDD.t55 sky130_fd_pr__pfet_01v8_lvt ad=0.122 pd=1.13 as=0.122 ps=1.13 w=0.84 l=0.35
X105 hgu_cdac_8bit_array_2.drv<63:0>.t115 db<6>.t23 VSS.t355 VSS.t354 sky130_fd_pr__nfet_01v8_lvt ad=0.0609 pd=0.71 as=0.0609 ps=0.71 w=0.42 l=0.35
X106 hgu_cdac_8bit_array_3.drv<63:0>.t93 d<6>.t29 VSS.t319 VSS.t318 sky130_fd_pr__nfet_01v8_lvt ad=0.0609 pd=0.71 as=0.0609 ps=0.71 w=0.42 l=0.35
X107 VSS.t357 db<6>.t24 hgu_cdac_8bit_array_2.drv<63:0>.t114 VSS.t356 sky130_fd_pr__nfet_01v8_lvt ad=0.0609 pd=0.71 as=0.0609 ps=0.71 w=0.42 l=0.35
X108 VSS.t461 d<3>.t3 hgu_cdac_8bit_array_3.drv<7:0>.t9 VSS.t460 sky130_fd_pr__nfet_01v8_lvt ad=0.0609 pd=0.71 as=0.0609 ps=0.71 w=0.42 l=0.35
X109 hgu_cdac_8bit_array_3.drv<31:0>.t3 d<5>.t13 VSS.t149 VSS.t148 sky130_fd_pr__nfet_01v8_lvt ad=0.0609 pd=0.71 as=0.0609 ps=0.71 w=0.42 l=0.35
X110 VREF.t82 db<6>.t25 hgu_cdac_8bit_array_2.drv<63:0>.t52 VDD.t82 sky130_fd_pr__pfet_01v8_lvt ad=0.122 pd=1.13 as=0.122 ps=1.13 w=0.84 l=0.35
X111 VREF.t103 d<6>.t30 hgu_cdac_8bit_array_3.drv<63:0>.t73 VDD.t103 sky130_fd_pr__pfet_01v8_lvt ad=0.244 pd=2.26 as=0.122 ps=1.13 w=0.84 l=0.35
X112 hgu_cdac_8bit_array_3.hgu_cdac_cap_4_0.CBOT.t3 d<2>.t1 VREF.t30 VDD.t30 sky130_fd_pr__pfet_01v8_lvt ad=0.122 pd=1.13 as=0.244 ps=2.26 w=0.84 l=0.35
X113 VSS.t147 d<5>.t14 hgu_cdac_8bit_array_3.drv<31:0>.t2 VSS.t146 sky130_fd_pr__nfet_01v8_lvt ad=0.0609 pd=0.71 as=0.0609 ps=0.71 w=0.42 l=0.35
X114 hgu_cdac_8bit_array_3.drv<63:0>.t92 d<6>.t31 VSS.t317 VSS.t316 sky130_fd_pr__nfet_01v8_lvt ad=0.0609 pd=0.71 as=0.122 ps=1.42 w=0.42 l=0.35
X115 VREF.t146 d<5>.t15 hgu_cdac_8bit_array_3.drv<31:0>.t39 VDD.t146 sky130_fd_pr__pfet_01v8_lvt ad=0.122 pd=1.13 as=0.122 ps=1.13 w=0.84 l=0.35
X116 VSS.t53 db<5>.t11 hgu_cdac_8bit_array_2.drv<31:0>.t6 VSS.t52 sky130_fd_pr__nfet_01v8_lvt ad=0.0609 pd=0.71 as=0.0609 ps=0.71 w=0.42 l=0.35
X117 hgu_cdac_8bit_array_2.drv<63:0>.t51 db<6>.t26 VREF.t83 VDD.t83 sky130_fd_pr__pfet_01v8_lvt ad=0.122 pd=1.13 as=0.122 ps=1.13 w=0.84 l=0.35
X118 hgu_cdac_8bit_array_2.drv<15:0>.t27 db<4>.t7 VSS.t353 VSS.t352 sky130_fd_pr__nfet_01v8_lvt ad=0.0609 pd=0.71 as=0.0609 ps=0.71 w=0.42 l=0.35
X119 VREF.t168 db<5>.t12 hgu_cdac_8bit_array_2.drv<31:0>.t37 VDD.t168 sky130_fd_pr__pfet_01v8_lvt ad=0.244 pd=2.26 as=0.122 ps=1.13 w=0.84 l=0.35
X120 VSS.t171 d<4>.t8 hgu_cdac_8bit_array_3.drv<15:0>.t27 VSS.t170 sky130_fd_pr__nfet_01v8_lvt ad=0.0609 pd=0.71 as=0.0609 ps=0.71 w=0.42 l=0.35
X121 hgu_cdac_8bit_array_3.drv<63:0>.t91 d<6>.t32 VSS.t315 VSS.t314 sky130_fd_pr__nfet_01v8_lvt ad=0.0609 pd=0.71 as=0.0609 ps=0.71 w=0.42 l=0.35
X122 VSS.t313 d<6>.t33 hgu_cdac_8bit_array_3.drv<63:0>.t90 VSS.t312 sky130_fd_pr__nfet_01v8_lvt ad=0.0609 pd=0.71 as=0.0609 ps=0.71 w=0.42 l=0.35
X123 VSS.t459 d<3>.t4 hgu_cdac_8bit_array_3.drv<7:0>.t8 VSS.t458 sky130_fd_pr__nfet_01v8_lvt ad=0.0609 pd=0.71 as=0.0609 ps=0.71 w=0.42 l=0.35
X124 hgu_cdac_8bit_array_3.drv<31:0>.t1 d<5>.t16 VSS.t145 VSS.t144 sky130_fd_pr__nfet_01v8_lvt ad=0.0609 pd=0.71 as=0.0609 ps=0.71 w=0.42 l=0.35
X125 VREF.t239 db<6>.t27 hgu_cdac_8bit_array_2.drv<63:0>.t50 VDD.t234 sky130_fd_pr__pfet_01v8_lvt ad=0.122 pd=1.13 as=0.122 ps=1.13 w=0.84 l=0.35
X126 hgu_cdac_8bit_array_2.drv<15:0>.t12 db<4>.t8 VREF.t248 VDD.t243 sky130_fd_pr__pfet_01v8_lvt ad=0.122 pd=1.13 as=0.122 ps=1.13 w=0.84 l=0.35
X127 hgu_cdac_8bit_array_2.drv<7:0>.t2 db<3>.t4 VSS.t491 VSS.t490 sky130_fd_pr__nfet_01v8_lvt ad=0.0609 pd=0.71 as=0.0609 ps=0.71 w=0.42 l=0.35
X128 VREF.t188 d<6>.t34 hgu_cdac_8bit_array_3.drv<63:0>.t72 VDD.t187 sky130_fd_pr__pfet_01v8_lvt ad=0.122 pd=1.13 as=0.122 ps=1.13 w=0.84 l=0.35
X129 VREF.t98 db<5>.t13 hgu_cdac_8bit_array_2.drv<31:0>.t36 VDD.t98 sky130_fd_pr__pfet_01v8_lvt ad=0.122 pd=1.13 as=0.122 ps=1.13 w=0.84 l=0.35
X130 hgu_cdac_8bit_array_2.drv<63:0>.t113 db<6>.t28 VSS.t475 VSS.t474 sky130_fd_pr__nfet_01v8_lvt ad=0.0609 pd=0.71 as=0.0609 ps=0.71 w=0.42 l=0.35
X131 VSS.t403 db<2>.t2 hgu_cdac_8bit_array_2.hgu_cdac_cap_4_0.CBOT.t6 VSS.t402 sky130_fd_pr__nfet_01v8_lvt ad=0.122 pd=1.42 as=0.0609 ps=0.71 w=0.42 l=0.35
X132 hgu_cdac_8bit_array_3.drv<15:0>.t26 d<4>.t9 VSS.t393 VSS.t392 sky130_fd_pr__nfet_01v8_lvt ad=0.0609 pd=0.71 as=0.122 ps=1.42 w=0.42 l=0.35
X133 VSS.t311 d<6>.t35 hgu_cdac_8bit_array_3.drv<63:0>.t109 VSS.t310 sky130_fd_pr__nfet_01v8_lvt ad=0.0609 pd=0.71 as=0.0609 ps=0.71 w=0.42 l=0.35
X134 hgu_cdac_8bit_array_2.drv<15:0>.t11 db<4>.t9 VREF.t160 VDD.t160 sky130_fd_pr__pfet_01v8_lvt ad=0.122 pd=1.13 as=0.122 ps=1.13 w=0.84 l=0.35
X135 VREF.t176 d<5>.t17 hgu_cdac_8bit_array_3.drv<31:0>.t38 VDD.t176 sky130_fd_pr__pfet_01v8_lvt ad=0.244 pd=2.26 as=0.122 ps=1.13 w=0.84 l=0.35
X136 hgu_cdac_8bit_array_3.drv<0>.t0 d<0>.t0 VREF.t249 VDD.t244 sky130_fd_pr__pfet_01v8_lvt ad=0.244 pd=2.26 as=0.244 ps=2.26 w=0.84 l=0.35
X137 VSS.t85 db<6>.t29 hgu_cdac_8bit_array_2.drv<63:0>.t112 VSS.t84 sky130_fd_pr__nfet_01v8_lvt ad=0.0609 pd=0.71 as=0.0609 ps=0.71 w=0.42 l=0.35
X138 VREF.t152 d<6>.t36 hgu_cdac_8bit_array_3.drv<63:0>.t71 VDD.t152 sky130_fd_pr__pfet_01v8_lvt ad=0.122 pd=1.13 as=0.122 ps=1.13 w=0.84 l=0.35
X139 hgu_cdac_8bit_array_2.drv<63:0>.t49 db<6>.t30 VREF.t31 VDD.t31 sky130_fd_pr__pfet_01v8_lvt ad=0.122 pd=1.13 as=0.122 ps=1.13 w=0.84 l=0.35
X140 hgu_cdac_8bit_array_2.drv<63:0>.t111 db<6>.t31 VSS.t175 VSS.t174 sky130_fd_pr__nfet_01v8_lvt ad=0.0609 pd=0.71 as=0.0609 ps=0.71 w=0.42 l=0.35
X141 hgu_cdac_8bit_array_3.drv<63:0>.t108 d<6>.t37 VSS.t309 VSS.t308 sky130_fd_pr__nfet_01v8_lvt ad=0.0609 pd=0.71 as=0.0609 ps=0.71 w=0.42 l=0.35
X142 VSS.t51 db<5>.t14 hgu_cdac_8bit_array_2.drv<31:0>.t58 VSS.t50 sky130_fd_pr__nfet_01v8_lvt ad=0.0609 pd=0.71 as=0.0609 ps=0.71 w=0.42 l=0.35
X143 VSS.t307 d<6>.t38 hgu_cdac_8bit_array_3.drv<63:0>.t107 VSS.t306 sky130_fd_pr__nfet_01v8_lvt ad=0.0609 pd=0.71 as=0.0609 ps=0.71 w=0.42 l=0.35
X144 hgu_cdac_8bit_array_2.drv<31:0>.t57 db<5>.t15 VSS.t49 VSS.t48 sky130_fd_pr__nfet_01v8_lvt ad=0.0609 pd=0.71 as=0.0609 ps=0.71 w=0.42 l=0.35
X145 VSS.t143 d<5>.t18 hgu_cdac_8bit_array_3.drv<31:0>.t0 VSS.t142 sky130_fd_pr__nfet_01v8_lvt ad=0.0609 pd=0.71 as=0.0609 ps=0.71 w=0.42 l=0.35
X146 hgu_cdac_8bit_array_2.drv<63:0>.t48 db<6>.t32 VREF.t62 VDD.t62 sky130_fd_pr__pfet_01v8_lvt ad=0.122 pd=1.13 as=0.122 ps=1.13 w=0.84 l=0.35
X147 hgu_cdac_8bit_array_2.drv<31:0>.t35 db<5>.t16 VREF.t142 VDD.t142 sky130_fd_pr__pfet_01v8_lvt ad=0.122 pd=1.13 as=0.122 ps=1.13 w=0.84 l=0.35
X148 hgu_cdac_8bit_array_3.drv<63:0>.t70 d<6>.t39 VREF.t225 VDD.t224 sky130_fd_pr__pfet_01v8_lvt ad=0.122 pd=1.13 as=0.122 ps=1.13 w=0.84 l=0.35
X149 hgu_cdac_8bit_array_3.drv<63:0>.t69 d<6>.t40 VREF.t0 VDD.t0 sky130_fd_pr__pfet_01v8_lvt ad=0.122 pd=1.13 as=0.122 ps=1.13 w=0.84 l=0.35
X150 VREF.t252 d<5>.t19 hgu_cdac_8bit_array_3.drv<31:0>.t37 VDD.t247 sky130_fd_pr__pfet_01v8_lvt ad=0.122 pd=1.13 as=0.122 ps=1.13 w=0.84 l=0.35
X151 hgu_cdac_8bit_array_3.drv<31:0>.t36 d<5>.t20 VREF.t127 VDD.t127 sky130_fd_pr__pfet_01v8_lvt ad=0.122 pd=1.13 as=0.122 ps=1.13 w=0.84 l=0.35
X152 VSS.t87 db<6>.t33 hgu_cdac_8bit_array_2.drv<63:0>.t110 VSS.t86 sky130_fd_pr__nfet_01v8_lvt ad=0.0609 pd=0.71 as=0.0609 ps=0.71 w=0.42 l=0.35
X153 VREF.t34 db<6>.t34 hgu_cdac_8bit_array_2.drv<63:0>.t47 VDD.t34 sky130_fd_pr__pfet_01v8_lvt ad=0.122 pd=1.13 as=0.122 ps=1.13 w=0.84 l=0.35
X154 hgu_cdac_8bit_array_3.drv<63:0>.t106 d<6>.t41 VSS.t305 VSS.t304 sky130_fd_pr__nfet_01v8_lvt ad=0.0609 pd=0.71 as=0.0609 ps=0.71 w=0.42 l=0.35
X155 hgu_cdac_8bit_array_2.drv<7:0>.t1 db<3>.t5 VSS.t489 VSS.t488 sky130_fd_pr__nfet_01v8_lvt ad=0.0609 pd=0.71 as=0.0609 ps=0.71 w=0.42 l=0.35
X156 hgu_cdac_8bit_array_2.drv<31:0>.t34 db<5>.t17 VREF.t163 VDD.t163 sky130_fd_pr__pfet_01v8_lvt ad=0.122 pd=1.13 as=0.122 ps=1.13 w=0.84 l=0.35
X157 VSS.t47 db<5>.t18 hgu_cdac_8bit_array_2.drv<31:0>.t56 VSS.t46 sky130_fd_pr__nfet_01v8_lvt ad=0.0609 pd=0.71 as=0.0609 ps=0.71 w=0.42 l=0.35
X158 hgu_cdac_8bit_array_2.hgu_cdac_cap_4_0.CBOT.t5 db<2>.t3 VSS.t471 VSS.t470 sky130_fd_pr__nfet_01v8_lvt ad=0.0609 pd=0.71 as=0.122 ps=1.42 w=0.42 l=0.35
X159 VREF.t33 d<6>.t42 hgu_cdac_8bit_array_3.drv<63:0>.t68 VDD.t33 sky130_fd_pr__pfet_01v8_lvt ad=0.122 pd=1.13 as=0.122 ps=1.13 w=0.84 l=0.35
X160 VSS.t303 d<6>.t43 hgu_cdac_8bit_array_3.drv<63:0>.t105 VSS.t302 sky130_fd_pr__nfet_01v8_lvt ad=0.0609 pd=0.71 as=0.0609 ps=0.71 w=0.42 l=0.35
X161 hgu_cdac_8bit_array_3.drv<63:0>.t67 d<6>.t44 VREF.t32 VDD.t32 sky130_fd_pr__pfet_01v8_lvt ad=0.122 pd=1.13 as=0.122 ps=1.13 w=0.84 l=0.35
X162 VSS.t417 db<6>.t35 hgu_cdac_8bit_array_2.drv<63:0>.t109 VSS.t416 sky130_fd_pr__nfet_01v8_lvt ad=0.0609 pd=0.71 as=0.0609 ps=0.71 w=0.42 l=0.35
X163 hgu_cdac_8bit_array_3.drv<31:0>.t35 d<5>.t21 VREF.t61 VDD.t61 sky130_fd_pr__pfet_01v8_lvt ad=0.122 pd=1.13 as=0.122 ps=1.13 w=0.84 l=0.35
X164 VREF.t223 d<2>.t2 hgu_cdac_8bit_array_3.hgu_cdac_cap_4_0.CBOT.t2 VDD.t222 sky130_fd_pr__pfet_01v8_lvt ad=0.244 pd=2.26 as=0.122 ps=1.13 w=0.84 l=0.35
X165 VSS.t301 d<6>.t45 hgu_cdac_8bit_array_3.drv<63:0>.t9 VSS.t300 sky130_fd_pr__nfet_01v8_lvt ad=0.0609 pd=0.71 as=0.0609 ps=0.71 w=0.42 l=0.35
X166 VSS.t419 db<6>.t36 hgu_cdac_8bit_array_2.drv<63:0>.t108 VSS.t418 sky130_fd_pr__nfet_01v8_lvt ad=0.0609 pd=0.71 as=0.0609 ps=0.71 w=0.42 l=0.35
X167 VSS.t177 db<6>.t37 hgu_cdac_8bit_array_2.drv<63:0>.t107 VSS.t176 sky130_fd_pr__nfet_01v8_lvt ad=0.0609 pd=0.71 as=0.0609 ps=0.71 w=0.42 l=0.35
X168 hgu_cdac_8bit_array_3.drv<31:0>.t14 d<5>.t22 VSS.t141 VSS.t140 sky130_fd_pr__nfet_01v8_lvt ad=0.0609 pd=0.71 as=0.0609 ps=0.71 w=0.42 l=0.35
X169 VSS.t45 db<5>.t19 hgu_cdac_8bit_array_2.drv<31:0>.t55 VSS.t44 sky130_fd_pr__nfet_01v8_lvt ad=0.0609 pd=0.71 as=0.0609 ps=0.71 w=0.42 l=0.35
X170 VREF.t66 db<6>.t38 hgu_cdac_8bit_array_2.drv<63:0>.t46 VDD.t66 sky130_fd_pr__pfet_01v8_lvt ad=0.122 pd=1.13 as=0.122 ps=1.13 w=0.84 l=0.35
X171 VREF.t64 d<6>.t46 hgu_cdac_8bit_array_3.drv<63:0>.t66 VDD.t64 sky130_fd_pr__pfet_01v8_lvt ad=0.122 pd=1.13 as=0.122 ps=1.13 w=0.84 l=0.35
X172 hgu_cdac_8bit_array_3.drv<15:0>.t11 d<4>.t10 VREF.t57 VDD.t57 sky130_fd_pr__pfet_01v8_lvt ad=0.122 pd=1.13 as=0.122 ps=1.13 w=0.84 l=0.35
X173 VREF.t19 d<5>.t23 hgu_cdac_8bit_array_3.drv<31:0>.t34 VDD.t19 sky130_fd_pr__pfet_01v8_lvt ad=0.122 pd=1.13 as=0.122 ps=1.13 w=0.84 l=0.35
X174 hgu_cdac_8bit_array_2.drv<63:0>.t106 db<6>.t39 VSS.t217 VSS.t216 sky130_fd_pr__nfet_01v8_lvt ad=0.0609 pd=0.71 as=0.0609 ps=0.71 w=0.42 l=0.35
X175 VSS.t203 db<4>.t10 hgu_cdac_8bit_array_2.drv<15:0>.t26 VSS.t202 sky130_fd_pr__nfet_01v8_lvt ad=0.0609 pd=0.71 as=0.0609 ps=0.71 w=0.42 l=0.35
X176 hgu_cdac_8bit_array_3.drv<63:0>.t65 d<6>.t47 VREF.t93 VDD.t93 sky130_fd_pr__pfet_01v8_lvt ad=0.122 pd=1.13 as=0.122 ps=1.13 w=0.84 l=0.35
X177 hgu_cdac_8bit_array_3.drv<15:0>.t25 d<4>.t11 VSS.t497 VSS.t496 sky130_fd_pr__nfet_01v8_lvt ad=0.0609 pd=0.71 as=0.0609 ps=0.71 w=0.42 l=0.35
X178 VSS.t299 d<6>.t48 hgu_cdac_8bit_array_3.drv<63:0>.t8 VSS.t298 sky130_fd_pr__nfet_01v8_lvt ad=0.0609 pd=0.71 as=0.0609 ps=0.71 w=0.42 l=0.35
X179 VREF.t97 db<5>.t20 hgu_cdac_8bit_array_2.drv<31:0>.t33 VDD.t97 sky130_fd_pr__pfet_01v8_lvt ad=0.122 pd=1.13 as=0.122 ps=1.13 w=0.84 l=0.35
X180 hgu_cdac_8bit_array_3.drv<31:0>.t33 d<5>.t24 VREF.t116 VDD.t116 sky130_fd_pr__pfet_01v8_lvt ad=0.122 pd=1.13 as=0.122 ps=1.13 w=0.84 l=0.35
X181 VSS.t139 d<5>.t25 hgu_cdac_8bit_array_3.drv<31:0>.t13 VSS.t138 sky130_fd_pr__nfet_01v8_lvt ad=0.0609 pd=0.71 as=0.0609 ps=0.71 w=0.42 l=0.35
X182 VSS.t297 d<6>.t49 hgu_cdac_8bit_array_3.drv<63:0>.t7 VSS.t296 sky130_fd_pr__nfet_01v8_lvt ad=0.0609 pd=0.71 as=0.0609 ps=0.71 w=0.42 l=0.35
X183 VREF.t119 db<6>.t40 hgu_cdac_8bit_array_2.drv<63:0>.t45 VDD.t119 sky130_fd_pr__pfet_01v8_lvt ad=0.122 pd=1.13 as=0.122 ps=1.13 w=0.84 l=0.35
X184 VSS.t487 db<3>.t6 hgu_cdac_8bit_array_2.drv<7:0>.t0 VSS.t486 sky130_fd_pr__nfet_01v8_lvt ad=0.0609 pd=0.71 as=0.0609 ps=0.71 w=0.42 l=0.35
X185 VSS.t295 d<6>.t50 hgu_cdac_8bit_array_3.drv<63:0>.t6 VSS.t294 sky130_fd_pr__nfet_01v8_lvt ad=0.0609 pd=0.71 as=0.0609 ps=0.71 w=0.42 l=0.35
X186 hgu_cdac_8bit_array_3.drv<15:0>.t10 d<4>.t12 VREF.t180 VDD.t180 sky130_fd_pr__pfet_01v8_lvt ad=0.122 pd=1.13 as=0.122 ps=1.13 w=0.84 l=0.35
X187 VREF.t22 db<6>.t41 hgu_cdac_8bit_array_2.drv<63:0>.t44 VDD.t22 sky130_fd_pr__pfet_01v8_lvt ad=0.122 pd=1.13 as=0.122 ps=1.13 w=0.84 l=0.35
X188 VSS.t469 d<4>.t13 hgu_cdac_8bit_array_3.drv<15:0>.t24 VSS.t468 sky130_fd_pr__nfet_01v8_lvt ad=0.0609 pd=0.71 as=0.0609 ps=0.71 w=0.42 l=0.35
X189 hgu_cdac_8bit_array_2.drv<63:0>.t105 db<6>.t42 VSS.t69 VSS.t68 sky130_fd_pr__nfet_01v8_lvt ad=0.0609 pd=0.71 as=0.0609 ps=0.71 w=0.42 l=0.35
X190 VSS.t67 db<4>.t11 hgu_cdac_8bit_array_2.drv<15:0>.t25 VSS.t66 sky130_fd_pr__nfet_01v8_lvt ad=0.0609 pd=0.71 as=0.0609 ps=0.71 w=0.42 l=0.35
X191 hgu_cdac_8bit_array_3.drv<7:0>.t3 d<3>.t5 VREF.t233 VDD.t80 sky130_fd_pr__pfet_01v8_lvt ad=0.122 pd=1.13 as=0.122 ps=1.13 w=0.84 l=0.35
X192 VREF.t178 db<4>.t12 hgu_cdac_8bit_array_2.drv<15:0>.t10 VDD.t178 sky130_fd_pr__pfet_01v8_lvt ad=0.122 pd=1.13 as=0.122 ps=1.13 w=0.84 l=0.35
X193 VREF.t138 db<5>.t21 hgu_cdac_8bit_array_2.drv<31:0>.t32 VDD.t138 sky130_fd_pr__pfet_01v8_lvt ad=0.122 pd=1.13 as=0.122 ps=1.13 w=0.84 l=0.35
X194 VREF.t52 d<6>.t51 hgu_cdac_8bit_array_3.drv<63:0>.t64 VDD.t52 sky130_fd_pr__pfet_01v8_lvt ad=0.122 pd=1.13 as=0.122 ps=1.13 w=0.84 l=0.35
X195 VSS.t293 d<6>.t52 hgu_cdac_8bit_array_3.drv<63:0>.t5 VSS.t292 sky130_fd_pr__nfet_01v8_lvt ad=0.0609 pd=0.71 as=0.0609 ps=0.71 w=0.42 l=0.35
X196 VSS.t137 d<5>.t26 hgu_cdac_8bit_array_3.drv<31:0>.t12 VSS.t136 sky130_fd_pr__nfet_01v8_lvt ad=0.0609 pd=0.71 as=0.0609 ps=0.71 w=0.42 l=0.35
X197 hgu_cdac_8bit_array_2.drv<63:0>.t104 db<6>.t43 VSS.t363 VSS.t362 sky130_fd_pr__nfet_01v8_lvt ad=0.0609 pd=0.71 as=0.0609 ps=0.71 w=0.42 l=0.35
X198 hgu_cdac_8bit_array_2.drv<63:0>.t43 db<6>.t44 VREF.t126 VDD.t126 sky130_fd_pr__pfet_01v8_lvt ad=0.122 pd=1.13 as=0.122 ps=1.13 w=0.84 l=0.35
X199 VSS.t291 d<6>.t53 hgu_cdac_8bit_array_3.drv<63:0>.t104 VSS.t290 sky130_fd_pr__nfet_01v8_lvt ad=0.0609 pd=0.71 as=0.0609 ps=0.71 w=0.42 l=0.35
X200 hgu_cdac_8bit_array_2.drv<1:0>.t1 db<1>.t1 VREF.t155 VDD.t155 sky130_fd_pr__pfet_01v8_lvt ad=0.122 pd=1.13 as=0.244 ps=2.26 w=0.84 l=0.35
X201 hgu_cdac_8bit_array_2.drv<31:0>.t54 db<5>.t22 VSS.t43 VSS.t42 sky130_fd_pr__nfet_01v8_lvt ad=0.0609 pd=0.71 as=0.0609 ps=0.71 w=0.42 l=0.35
X202 hgu_cdac_8bit_array_3.drv<63:0>.t103 d<6>.t54 VSS.t289 VSS.t288 sky130_fd_pr__nfet_01v8_lvt ad=0.0609 pd=0.71 as=0.0609 ps=0.71 w=0.42 l=0.35
X203 hgu_cdac_8bit_array_3.drv<7:0>.t15 d<3>.t6 VREF.t232 VDD.t229 sky130_fd_pr__pfet_01v8_lvt ad=0.122 pd=1.13 as=0.122 ps=1.13 w=0.84 l=0.35
X204 hgu_cdac_8bit_array_2.drv<7:0>.t12 db<3>.t7 VREF.t153 VDD.t153 sky130_fd_pr__pfet_01v8_lvt ad=0.122 pd=1.13 as=0.122 ps=1.13 w=0.84 l=0.35