* NGSPICE file created from hgu_sarlogic_retimer_flat.ext - technology: sky130A

.subckt hgu_sarlogic_retimer_RC eob delay_code[2] delay_code[1] delay_code[3] sar_logic[1]
+ sar_logic[2] sar_logic[5] sar_logic[4] sar_retimer[1] sar_retimer[0] sar_retimer[3]
+ sar_retimer[2] sar_retimer[5] sar_retimer[4] sar_retimer[7] sar_retimer[6] sar_logic[6]
+ sar_logic[7] sar_logic[3] sar_logic[0] delay_offset delay_code[0] VSS VDD
X0 a_14018_6401# a_13844_6793# a_14158_6427# VSS.t31 sky130_fd_pr__nfet_01v8 ad=0.0864 pd=0.91 as=0.101 ps=0.99 w=0.64 l=0.15
X1 sar_retimer[3].t0 a_17898_6427# VDD.t131 VDD.t130 sky130_fd_pr__pfet_01v8_hvt ad=0.26 pd=2.52 as=0.149 ps=1.33 w=1 l=0.15
X2 a_16654_5787# a_16236_5787# a_16410_5761# VDD.t29 sky130_fd_pr__pfet_01v8_hvt ad=0.113 pd=1.11 as=0.147 ps=1.23 w=0.84 l=0.15
X3 a_16410_7041# a_16236_7067# a_16550_7433# VSS.t178 sky130_fd_pr__nfet_01v8 ad=0.0864 pd=0.91 as=0.101 ps=0.99 w=0.64 l=0.15
X4 VSS.t238 a_17191_5121# a_17126_5147# VSS.t237 sky130_fd_pr__nfet_01v8 ad=0.0588 pd=0.7 as=0.066 ps=0.745 w=0.42 l=0.15
X5 a_13751_5147# sar_logic[6].t0 VSS.t138 VSS.t137 sky130_fd_pr__nfet_01v8 ad=0.066 pd=0.745 as=0.109 ps=1.36 w=0.42 l=0.15
X6 a_16922_6109# a_16410_5761# VSS.t165 VSS.t98 sky130_fd_pr__nfet_01v8 ad=0.0935 pd=0.965 as=0.166 ps=1.8 w=0.64 l=0.15
X7 VSS.t124 a_16410_5121# a_16344_5147# VSS.t123 sky130_fd_pr__nfet_01v8 ad=0.084 pd=0.82 as=0.0671 ps=0.75 w=0.42 l=0.15
X8 VSS.t105 eob.t0 a_12385_8002# VSS.t23 sky130_fd_pr__nfet_01v8 ad=0.122 pd=1.42 as=0.0441 ps=0.63 w=0.42 l=0.15
X9 a_14530_7389# a_14018_7041# VSS.t14 VSS.t13 sky130_fd_pr__nfet_01v8 ad=0.0935 pd=0.965 as=0.166 ps=1.8 w=0.64 l=0.15
X10 sar_retimer[2].t0 a_15506_6427# VDD.t133 VDD.t132 sky130_fd_pr__pfet_01v8_hvt ad=0.26 pd=2.52 as=0.149 ps=1.33 w=1 l=0.15
X11 a_14483_5787# a_14018_5761# VDD.t174 VDD.t173 sky130_fd_pr__pfet_01v8_hvt ad=0.174 pd=1.41 as=0.225 ps=1.38 w=0.84 l=0.15
X12 a_16410_5761# VDD.t105 VDD.t106 VDD.t85 sky130_fd_pr__pfet_01v8_hvt ad=0.147 pd=1.23 as=0.0798 ps=0.8 w=0.42 l=0.15
X13 a_18195_9356# x2.x9.output_stack VDD.t186 VDD.t185 sky130_fd_pr__pfet_01v8_hvt ad=0.122 pd=1.42 as=0.122 ps=1.42 w=0.42 l=0.15
X14 x3.X a_18499_9105# VDD.t183 VDD.t181 sky130_fd_pr__pfet_01v8_hvt ad=0.135 pd=1.27 as=0.149 ps=1.33 w=1 l=0.15
X15 VDD.t217 a_16704_7267# a_16654_7067# VDD.t168 sky130_fd_pr__pfet_01v8_hvt ad=0.225 pd=1.38 as=0.113 ps=1.11 w=0.84 l=0.15
X16 VDD.t200 a_17191_7041# a_17898_7083# VDD.t199 sky130_fd_pr__pfet_01v8_hvt ad=0.149 pd=1.33 as=0.166 ps=1.8 w=0.64 l=0.15
X17 x2.x3[1].floating delay_code[1].t0 x2.x9.output_stack VSS.t0 sky130_fd_pr__nfet_01v8 ad=0.122 pd=1.42 as=0.0966 ps=0.88 w=0.42 l=0.15
X18 VSS.t73 x3.X a_13397_7073# VSS.t72 sky130_fd_pr__nfet_01v8 ad=0.0567 pd=0.69 as=0.109 ps=1.36 w=0.42 l=0.15
X19 x1[0].Q_N a_14799_7041# VDD.t232 VDD.t148 sky130_fd_pr__pfet_01v8_hvt ad=0.26 pd=2.52 as=0.154 ps=1.34 w=1 l=0.15
X20 VDD.t104 VDD.t103 a_14312_6401# VDD.t82 sky130_fd_pr__pfet_01v8_hvt ad=0.154 pd=1.34 as=0.166 ps=1.8 w=0.64 l=0.15
X21 a_16236_5787# a_15955_5793# a_16143_5787# VDD.t141 sky130_fd_pr__pfet_01v8_hvt ad=0.0567 pd=0.69 as=0.0662 ps=0.735 w=0.42 l=0.15
X22 VDD.t129 x3.X a_13397_5147# VDD.t126 sky130_fd_pr__pfet_01v8_hvt ad=0.0864 pd=0.91 as=0.166 ps=1.8 w=0.64 l=0.15
X23 a_14262_7067# a_13844_7067# a_14018_7041# VDD.t170 sky130_fd_pr__pfet_01v8_hvt ad=0.113 pd=1.11 as=0.147 ps=1.23 w=0.84 l=0.15
X24 a_16143_6427# sar_logic[3].t0 VDD.t201 VDD.t176 sky130_fd_pr__pfet_01v8_hvt ad=0.0662 pd=0.735 as=0.109 ps=1.36 w=0.42 l=0.15
X25 a_14734_7445# a_13397_7073# a_14625_7445# VSS.t114 sky130_fd_pr__nfet_01v8 ad=0.066 pd=0.745 as=0.0711 ps=0.755 w=0.36 l=0.15
X26 a_14915_6153# a_14312_5987# a_14799_5761# VSS.t35 sky130_fd_pr__nfet_01v8 ad=0.166 pd=1.8 as=0.0864 ps=0.91 w=0.64 l=0.15
X27 a_13928_5513# a_13397_5147# a_13844_5513# VDD.t44 sky130_fd_pr__pfet_01v8_hvt ad=0.0945 pd=0.87 as=0.0567 ps=0.69 w=0.42 l=0.15
X28 VSS.t12 a_14018_7041# a_13952_7445# VSS.t11 sky130_fd_pr__nfet_01v8 ad=0.084 pd=0.82 as=0.0671 ps=0.75 w=0.42 l=0.15
X29 a_16236_7067# a_15789_7073# a_16143_7067# VSS.t8 sky130_fd_pr__nfet_01v8 ad=0.0684 pd=0.74 as=0.066 ps=0.745 w=0.36 l=0.15
X30 VSS.t194 a_14799_5761# a_14734_6165# VSS.t115 sky130_fd_pr__nfet_01v8 ad=0.0588 pd=0.7 as=0.066 ps=0.745 w=0.42 l=0.15
X31 a_13844_5787# a_13563_5793# a_13751_5787# VDD.t143 sky130_fd_pr__pfet_01v8_hvt ad=0.0567 pd=0.69 as=0.0662 ps=0.735 w=0.42 l=0.15
X32 VDD.t102 VDD.t101 a_16704_7267# VDD.t72 sky130_fd_pr__pfet_01v8_hvt ad=0.154 pd=1.34 as=0.166 ps=1.8 w=0.64 l=0.15
X33 VDD.t210 a_17191_5761# a_17898_5803# VDD.t209 sky130_fd_pr__pfet_01v8_hvt ad=0.149 pd=1.33 as=0.166 ps=1.8 w=0.64 l=0.15
X34 a_14018_7041# VDD.t99 VDD.t100 VDD.t75 sky130_fd_pr__pfet_01v8_hvt ad=0.147 pd=1.23 as=0.0798 ps=0.8 w=0.42 l=0.15
X35 a_13751_6427# sar_logic[2].t0 VDD.t223 VDD.t21 sky130_fd_pr__pfet_01v8_hvt ad=0.0662 pd=0.735 as=0.109 ps=1.36 w=0.42 l=0.15
X36 a_16654_6709# a_16236_6793# a_16410_6401# VDD.t139 sky130_fd_pr__pfet_01v8_hvt ad=0.113 pd=1.11 as=0.147 ps=1.23 w=0.84 l=0.15
X37 VDD.t229 a_17191_6401# a_17103_6793# VDD.t197 sky130_fd_pr__pfet_01v8_hvt ad=0.0819 pd=0.81 as=0.0924 ps=0.86 w=0.42 l=0.15
X38 VSS.t71 x3.X a_13397_5147# VSS.t70 sky130_fd_pr__nfet_01v8 ad=0.0567 pd=0.69 as=0.109 ps=1.36 w=0.42 l=0.15
X39 a_14018_7041# a_13844_7067# a_14158_7433# VSS.t181 sky130_fd_pr__nfet_01v8 ad=0.0864 pd=0.91 as=0.101 ps=0.99 w=0.64 l=0.15
X40 a_15033_7067# a_14625_7445# a_14799_7041# VDD.t158 sky130_fd_pr__pfet_01v8_hvt ad=0.0882 pd=1.05 as=0.123 ps=1.17 w=0.84 l=0.15
X41 VDD.t138 a_16410_6401# a_16320_6793# VDD.t137 sky130_fd_pr__pfet_01v8_hvt ad=0.0798 pd=0.8 as=0.0945 ps=0.87 w=0.42 l=0.15
X42 VDD.t128 x3.X a_15789_5793# VDD.t118 sky130_fd_pr__pfet_01v8_hvt ad=0.0864 pd=0.91 as=0.166 ps=1.8 w=0.64 l=0.15
X43 a_16410_5761# a_16236_5787# a_16550_6153# VSS.t102 sky130_fd_pr__nfet_01v8 ad=0.0864 pd=0.91 as=0.101 ps=0.99 w=0.64 l=0.15
X44 a_16875_5429# a_16410_5121# VDD.t157 VDD.t156 sky130_fd_pr__pfet_01v8_hvt ad=0.174 pd=1.41 as=0.225 ps=1.38 w=0.84 l=0.15
X45 a_13844_7067# a_13397_7073# a_13751_7067# VSS.t113 sky130_fd_pr__nfet_01v8 ad=0.0684 pd=0.74 as=0.066 ps=0.745 w=0.36 l=0.15
X46 VSS.t140 VDD.t239 a_16704_7267# VSS.t139 sky130_fd_pr__nfet_01v8 ad=0.097 pd=0.975 as=0.109 ps=1.36 w=0.42 l=0.15
X47 sar_retimer[1].t0 a_17898_7083# VDD.t134 VDD.t130 sky130_fd_pr__pfet_01v8_hvt ad=0.26 pd=2.52 as=0.149 ps=1.33 w=1 l=0.15
X48 a_14483_6709# a_14018_6401# VDD.t180 VDD.t11 sky130_fd_pr__pfet_01v8_hvt ad=0.174 pd=1.41 as=0.225 ps=1.38 w=0.84 l=0.15
X49 a_17103_5787# a_15955_5793# a_17017_6165# VDD.t140 sky130_fd_pr__pfet_01v8_hvt ad=0.0924 pd=0.86 as=0.0567 ps=0.69 w=0.42 l=0.15
X50 VDD.t216 a_16704_7267# a_17425_7067# VDD.t166 sky130_fd_pr__pfet_01v8_hvt ad=0.218 pd=2.2 as=0.0882 ps=1.05 w=0.84 l=0.15
X51 a_14530_6109# a_14018_5761# VSS.t131 VSS.t130 sky130_fd_pr__nfet_01v8 ad=0.0935 pd=0.965 as=0.166 ps=1.8 w=0.64 l=0.15
X52 a_17307_6153# VDD.t240 VSS.t147 VSS.t91 sky130_fd_pr__nfet_01v8 ad=0.12 pd=1.08 as=0.0588 ps=0.7 w=0.42 l=0.15
X53 VSS.t201 a_14018_5121# a_13952_5147# VSS.t200 sky130_fd_pr__nfet_01v8 ad=0.084 pd=0.82 as=0.0671 ps=0.75 w=0.42 l=0.15
X54 a_16550_6427# VDD.t241 VSS.t149 VSS.t148 sky130_fd_pr__nfet_01v8 ad=0.101 pd=0.99 as=0.084 ps=0.82 w=0.42 l=0.15
X55 VDD.t231 a_14799_7041# a_15506_7083# VDD.t152 sky130_fd_pr__pfet_01v8_hvt ad=0.149 pd=1.33 as=0.166 ps=1.8 w=0.64 l=0.15
X56 a_15955_7073# a_15789_7073# VDD.t6 VDD.t5 sky130_fd_pr__pfet_01v8_hvt ad=0.166 pd=1.8 as=0.0864 ps=0.91 w=0.64 l=0.15
X57 a_16922_5147# a_16410_5121# VSS.t122 VSS.t121 sky130_fd_pr__nfet_01v8 ad=0.0935 pd=0.965 as=0.166 ps=1.8 w=0.64 l=0.15
X58 VDD.t40 a_14312_5121# a_14262_5429# VDD.t39 sky130_fd_pr__pfet_01v8_hvt ad=0.225 pd=1.38 as=0.113 ps=1.11 w=0.84 l=0.15
X59 sar_retimer[0].t0 a_15506_7083# VDD.t222 VDD.t132 sky130_fd_pr__pfet_01v8_hvt ad=0.26 pd=2.52 as=0.149 ps=1.33 w=1 l=0.15
X60 a_17191_6401# a_17017_6427# a_17307_6427# VSS.t74 sky130_fd_pr__nfet_01v8 ad=0.0864 pd=0.91 as=0.12 ps=1.08 w=0.64 l=0.15
X61 a_14711_5787# a_13563_5793# a_14625_6165# VDD.t142 sky130_fd_pr__pfet_01v8_hvt ad=0.0924 pd=0.86 as=0.0567 ps=0.69 w=0.42 l=0.15
X62 x2.x9.output_stack x2.x10.Y.t2 x2.x5[7].floating.t7 VDD.t115 sky130_fd_pr__pfet_01v8 ad=0.101 pd=0.9 as=0.122 ps=1.42 w=0.42 l=0.15
X63 a_12385_8278# eob.t1 a_12297_8278# VSS.t4 sky130_fd_pr__nfet_01v8 ad=0.0441 pd=0.63 as=0.122 ps=1.42 w=0.42 l=0.15
X64 a_14915_6153# VDD.t242 VSS.t150 VSS.t93 sky130_fd_pr__nfet_01v8 ad=0.12 pd=1.08 as=0.0588 ps=0.7 w=0.42 l=0.15
X65 VSS.t152 VDD.t243 a_16704_5121# VSS.t151 sky130_fd_pr__nfet_01v8 ad=0.097 pd=0.975 as=0.109 ps=1.36 w=0.42 l=0.15
X66 VDD.t98 VDD.t97 a_14312_5121# VDD.t63 sky130_fd_pr__pfet_01v8_hvt ad=0.154 pd=1.34 as=0.166 ps=1.8 w=0.64 l=0.15
X67 VSS.t154 VDD.t244 a_14312_6401# VSS.t153 sky130_fd_pr__nfet_01v8 ad=0.097 pd=0.975 as=0.109 ps=1.36 w=0.42 l=0.15
X68 VSS.t226 a_17191_6401# a_17898_6427# VSS.t182 sky130_fd_pr__nfet_01v8 ad=0.097 pd=0.975 as=0.109 ps=1.36 w=0.42 l=0.15
X69 a_16143_5147# sar_logic[7].t0 VDD.t162 VDD.t161 sky130_fd_pr__pfet_01v8_hvt ad=0.0662 pd=0.735 as=0.109 ps=1.36 w=0.42 l=0.15
X70 a_17017_6165# a_15789_5793# a_16875_5787# VDD.t19 sky130_fd_pr__pfet_01v8_hvt ad=0.0567 pd=0.69 as=0.174 ps=1.41 w=0.42 l=0.15
X71 a_18195_9015# x2.x9.output_stack VSS.t163 VSS.t162 sky130_fd_pr__nfet_01v8 ad=0.122 pd=1.42 as=0.122 ps=1.42 w=0.42 l=0.15
X72 a_16320_6793# a_15789_6427# a_16236_6793# VDD.t4 sky130_fd_pr__pfet_01v8_hvt ad=0.0945 pd=0.87 as=0.0567 ps=0.69 w=0.42 l=0.15
X73 VDD.t215 a_14799_5761# a_15506_5803# VDD.t191 sky130_fd_pr__pfet_01v8_hvt ad=0.149 pd=1.33 as=0.166 ps=1.8 w=0.64 l=0.15
X74 x1[7].Q_N a_17191_5121# VSS.t236 VSS.t235 sky130_fd_pr__nfet_01v8 ad=0.169 pd=1.82 as=0.097 ps=0.975 w=0.65 l=0.15
X75 VDD.t236 a_17191_5121# a_17103_5513# VDD.t207 sky130_fd_pr__pfet_01v8_hvt ad=0.0819 pd=0.81 as=0.0924 ps=0.86 w=0.42 l=0.15
X76 a_14915_5147# a_14312_5121# a_14799_5121# VSS.t42 sky130_fd_pr__nfet_01v8 ad=0.166 pd=1.8 as=0.0864 ps=0.91 w=0.64 l=0.15
X77 a_13751_5147# sar_logic[6].t1 VDD.t163 VDD.t25 sky130_fd_pr__pfet_01v8_hvt ad=0.0662 pd=0.735 as=0.109 ps=1.36 w=0.42 l=0.15
X78 a_17191_7041# VDD.t95 VDD.t96 VDD.t60 sky130_fd_pr__pfet_01v8_hvt ad=0.123 pd=1.17 as=0.0819 ps=0.81 w=0.42 l=0.15
X79 VDD.t179 a_14018_6401# a_13928_6793# VDD.t13 sky130_fd_pr__pfet_01v8_hvt ad=0.0798 pd=0.8 as=0.0945 ps=0.87 w=0.42 l=0.15
X80 x1[2].Q_N a_14799_6401# VSS.t120 VSS.t119 sky130_fd_pr__nfet_01v8 ad=0.169 pd=1.82 as=0.097 ps=0.975 w=0.65 l=0.15
X81 VDD.t127 x3.X a_13397_5793# VDD.t126 sky130_fd_pr__pfet_01v8_hvt ad=0.0864 pd=0.91 as=0.166 ps=1.8 w=0.64 l=0.15
X82 a_14018_5761# a_13844_5787# a_14158_6153# VSS.t31 sky130_fd_pr__nfet_01v8 ad=0.0864 pd=0.91 as=0.101 ps=0.99 w=0.64 l=0.15
X83 VDD.t155 a_16410_5121# a_16320_5513# VDD.t154 sky130_fd_pr__pfet_01v8_hvt ad=0.0798 pd=0.8 as=0.0945 ps=0.87 w=0.42 l=0.15
X84 a_16550_6427# a_16704_6401# a_16410_6401# VSS.t57 sky130_fd_pr__nfet_01v8 ad=0.166 pd=1.8 as=0.0864 ps=0.91 w=0.64 l=0.15
X85 x2.x10.Y.t0 delay_code[3].t0 VDD.t226 VDD.t225 sky130_fd_pr__pfet_01v8_hvt ad=0.26 pd=2.52 as=0.26 ps=2.52 w=1 l=0.15
X86 a_14158_6427# VDD.t245 VSS.t156 VSS.t155 sky130_fd_pr__nfet_01v8 ad=0.101 pd=0.99 as=0.084 ps=0.82 w=0.42 l=0.15
X87 a_16410_5121# a_16236_5513# a_16550_5147# VSS.t34 sky130_fd_pr__nfet_01v8 ad=0.0864 pd=0.91 as=0.101 ps=0.99 w=0.64 l=0.15
X88 VDD.t38 a_14312_5121# a_15033_5429# VDD.t37 sky130_fd_pr__pfet_01v8_hvt ad=0.218 pd=2.2 as=0.0882 ps=1.05 w=0.84 l=0.15
X89 a_17017_7445# a_15955_7073# a_16922_7389# VSS.t142 sky130_fd_pr__nfet_01v8 ad=0.0711 pd=0.755 as=0.0935 ps=0.965 w=0.36 l=0.15
X90 a_16344_5147# a_15955_5147# a_16236_5513# VSS.t108 sky130_fd_pr__nfet_01v8 ad=0.0671 pd=0.75 as=0.0684 ps=0.74 w=0.36 l=0.15
X91 a_18195_9356# x2.x9.output_stack x3.A VDD.t110 sky130_fd_pr__pfet_01v8_hvt ad=0.0651 pd=0.73 as=0.122 ps=1.42 w=0.42 l=0.15
X92 a_14625_7445# a_13397_7073# a_14483_7067# VDD.t147 sky130_fd_pr__pfet_01v8_hvt ad=0.0567 pd=0.69 as=0.174 ps=1.41 w=0.42 l=0.15
X93 VDD.t230 a_14799_7041# a_14711_7067# VDD.t150 sky130_fd_pr__pfet_01v8_hvt ad=0.0819 pd=0.81 as=0.0924 ps=0.86 w=0.42 l=0.15
X94 a_14530_5147# a_14018_5121# VSS.t199 VSS.t198 sky130_fd_pr__nfet_01v8 ad=0.0935 pd=0.965 as=0.166 ps=1.8 w=0.64 l=0.15
X95 a_12385_8692# eob.t2 a_12297_8554# VSS.t4 sky130_fd_pr__nfet_01v8 ad=0.0441 pd=0.63 as=0.122 ps=1.42 w=0.42 l=0.15
X96 a_15955_7073# a_15789_7073# VSS.t7 VSS.t6 sky130_fd_pr__nfet_01v8 ad=0.109 pd=1.36 as=0.0567 ps=0.69 w=0.42 l=0.15
X97 a_17191_7041# a_17017_7445# a_17307_7433# VSS.t15 sky130_fd_pr__nfet_01v8 ad=0.0864 pd=0.91 as=0.12 ps=1.08 w=0.64 l=0.15
X98 a_14799_6401# a_14625_6427# a_14915_6427# VSS.t106 sky130_fd_pr__nfet_01v8 ad=0.0864 pd=0.91 as=0.12 ps=1.08 w=0.64 l=0.15
X99 x1[6].Q_N a_14799_5121# VDD.t194 VDD.t193 sky130_fd_pr__pfet_01v8_hvt ad=0.26 pd=2.52 as=0.154 ps=1.34 w=1 l=0.15
X100 a_13952_5147# a_13563_5147# a_13844_5513# VSS.t110 sky130_fd_pr__nfet_01v8 ad=0.0671 pd=0.75 as=0.0684 ps=0.74 w=0.36 l=0.15
X101 x1[1].Q_N a_17191_7041# VSS.t177 VSS.t176 sky130_fd_pr__nfet_01v8 ad=0.169 pd=1.82 as=0.097 ps=0.975 w=0.65 l=0.15
X102 VSS.t118 a_14799_6401# a_15506_6427# VSS.t117 sky130_fd_pr__nfet_01v8 ad=0.097 pd=0.975 as=0.109 ps=1.36 w=0.42 l=0.15
X103 a_14799_5761# VDD.t93 VDD.t94 VDD.t69 sky130_fd_pr__pfet_01v8_hvt ad=0.123 pd=1.17 as=0.0819 ps=0.81 w=0.42 l=0.15
X104 sar_retimer[3].t1 a_17898_6427# VSS.t76 VSS.t75 sky130_fd_pr__nfet_01v8 ad=0.169 pd=1.82 as=0.097 ps=0.975 w=0.65 l=0.15
X105 VSS.t69 x3.X a_15789_5793# VSS.t66 sky130_fd_pr__nfet_01v8 ad=0.0567 pd=0.69 as=0.109 ps=1.36 w=0.42 l=0.15
X106 a_16143_5787# sar_logic[5].t0 VSS.t104 VSS.t103 sky130_fd_pr__nfet_01v8 ad=0.066 pd=0.745 as=0.109 ps=1.36 w=0.42 l=0.15
X107 a_15955_5147# a_15789_5147# VDD.t23 VDD.t17 sky130_fd_pr__pfet_01v8_hvt ad=0.166 pd=1.8 as=0.0864 ps=0.91 w=0.64 l=0.15
X108 a_17425_5787# a_17017_6165# a_17191_5761# VDD.t107 sky130_fd_pr__pfet_01v8_hvt ad=0.0882 pd=1.05 as=0.123 ps=1.17 w=0.84 l=0.15
X109 x2.x9.output_stack x2.x10.Y.t3 x2.x5[7].floating.t6 VDD.t115 sky130_fd_pr__pfet_01v8 ad=0.101 pd=0.9 as=0.122 ps=1.42 w=0.42 l=0.15
X110 x2.x9.output_stack delay_code[2].t0 x2.x4[3].floating VSS.t22 sky130_fd_pr__nfet_01v8 ad=0.0966 pd=0.88 as=0.122 ps=1.42 w=0.42 l=0.15
X111 a_14625_5147# a_13563_5147# a_14530_5147# VSS.t109 sky130_fd_pr__nfet_01v8 ad=0.0711 pd=0.755 as=0.0935 ps=0.965 w=0.36 l=0.15
X112 a_12385_8968# eob.t3 a_12297_8830# VSS.t4 sky130_fd_pr__nfet_01v8 ad=0.0441 pd=0.63 as=0.122 ps=1.42 w=0.42 l=0.15
X113 a_12457_8140# eob.t4 a_12385_8278# VSS.t23 sky130_fd_pr__nfet_01v8 ad=0.122 pd=1.42 as=0.0441 ps=0.63 w=0.42 l=0.15
X114 a_17126_7445# a_15789_7073# a_17017_7445# VSS.t5 sky130_fd_pr__nfet_01v8 ad=0.066 pd=0.745 as=0.0711 ps=0.755 w=0.36 l=0.15
X115 a_13563_6427# a_13397_6427# VDD.t237 VDD.t144 sky130_fd_pr__pfet_01v8_hvt ad=0.166 pd=1.8 as=0.0864 ps=0.91 w=0.64 l=0.15
X116 a_13751_5787# sar_logic[4].t0 VSS.t21 VSS.t20 sky130_fd_pr__nfet_01v8 ad=0.066 pd=0.745 as=0.109 ps=1.36 w=0.42 l=0.15
X117 VSS.t187 a_17191_5761# a_17126_6165# VSS.t186 sky130_fd_pr__nfet_01v8 ad=0.0588 pd=0.7 as=0.066 ps=0.745 w=0.42 l=0.15
X118 a_16320_5513# a_15789_5147# a_16236_5513# VDD.t16 sky130_fd_pr__pfet_01v8_hvt ad=0.0945 pd=0.87 as=0.0567 ps=0.69 w=0.42 l=0.15
X119 x2.x9.output_stack delay_offset.t0 x2.x7.floating VSS.t157 sky130_fd_pr__nfet_01v8 ad=0.122 pd=1.42 as=0.122 ps=1.42 w=0.42 l=0.15
X120 a_18195_9015# x3.A VDD.t114 VSS.t55 sky130_fd_pr__nfet_01v8 ad=0.13 pd=1.46 as=0.0693 ps=0.75 w=0.42 l=0.15
X121 sar_retimer[2].t1 a_15506_6427# VSS.t80 VSS.t79 sky130_fd_pr__nfet_01v8 ad=0.169 pd=1.82 as=0.097 ps=0.975 w=0.65 l=0.15
X122 VDD.t221 a_14018_5121# a_13928_5513# VDD.t171 sky130_fd_pr__pfet_01v8_hvt ad=0.0798 pd=0.8 as=0.0945 ps=0.87 w=0.42 l=0.15
X123 a_16410_6401# VDD.t91 VDD.t92 VDD.t66 sky130_fd_pr__pfet_01v8_hvt ad=0.147 pd=1.23 as=0.0798 ps=0.8 w=0.42 l=0.15
X124 VSS.t164 a_16410_5761# a_16344_6165# VSS.t100 sky130_fd_pr__nfet_01v8 ad=0.084 pd=0.82 as=0.0671 ps=0.75 w=0.42 l=0.15
X125 a_15955_5147# a_15789_5147# VSS.t27 VSS.t26 sky130_fd_pr__nfet_01v8 ad=0.109 pd=1.36 as=0.0567 ps=0.69 w=0.42 l=0.15
X126 x3.X a_18499_9105# VSS.t146 VSS.t145 sky130_fd_pr__nfet_01v8 ad=0.0878 pd=0.92 as=0.097 ps=0.975 w=0.65 l=0.15
X127 a_16550_7433# a_16704_7267# a_16410_7041# VSS.t196 sky130_fd_pr__nfet_01v8 ad=0.166 pd=1.8 as=0.0864 ps=0.91 w=0.64 l=0.15
X128 VDD.t117 a_16704_5987# a_16654_5787# VDD.t9 sky130_fd_pr__pfet_01v8_hvt ad=0.225 pd=1.38 as=0.113 ps=1.11 w=0.84 l=0.15
X129 x2.x9.output_stack x2.x10.Y.t4 x2.x5[7].floating.t5 VDD.t115 sky130_fd_pr__pfet_01v8 ad=0.101 pd=0.9 as=0.122 ps=1.42 w=0.42 l=0.15
X130 a_13563_6427# a_13397_6427# VSS.t240 VSS.t158 sky130_fd_pr__nfet_01v8 ad=0.109 pd=1.36 as=0.0567 ps=0.69 w=0.42 l=0.15
X131 x1[4].Q_N a_14799_5761# VDD.t214 VDD.t193 sky130_fd_pr__pfet_01v8_hvt ad=0.26 pd=2.52 as=0.154 ps=1.34 w=1 l=0.15
X132 sar_retimer[7].t0 a_17898_5147# VDD.t1 VDD.t0 sky130_fd_pr__pfet_01v8_hvt ad=0.26 pd=2.52 as=0.149 ps=1.33 w=1 l=0.15
X133 a_14018_5121# a_13844_5513# a_14158_5147# VSS.t3 sky130_fd_pr__nfet_01v8 ad=0.0864 pd=0.91 as=0.101 ps=0.99 w=0.64 l=0.15
X134 a_16236_6793# a_15955_6427# a_16143_6427# VDD.t165 sky130_fd_pr__pfet_01v8_hvt ad=0.0567 pd=0.69 as=0.0662 ps=0.735 w=0.42 l=0.15
X135 a_16875_7067# a_16410_7041# VDD.t212 VDD.t135 sky130_fd_pr__pfet_01v8_hvt ad=0.174 pd=1.41 as=0.225 ps=1.38 w=0.84 l=0.15
X136 a_14262_5787# a_13844_5787# a_14018_5761# VDD.t2 sky130_fd_pr__pfet_01v8_hvt ad=0.113 pd=1.11 as=0.147 ps=1.23 w=0.84 l=0.15
X137 a_13928_7067# a_13397_7073# a_13844_7067# VDD.t146 sky130_fd_pr__pfet_01v8_hvt ad=0.0945 pd=0.87 as=0.0567 ps=0.69 w=0.42 l=0.15
X138 sar_retimer[6].t0 a_15506_5147# VDD.t28 VDD.t27 sky130_fd_pr__pfet_01v8_hvt ad=0.26 pd=2.52 as=0.149 ps=1.33 w=1 l=0.15
X139 a_17191_5761# a_17017_6165# a_17307_6153# VSS.t74 sky130_fd_pr__nfet_01v8 ad=0.0864 pd=0.91 as=0.12 ps=1.08 w=0.64 l=0.15
X140 VDD.t203 delay_offset.t1 x2.x6.SW VDD.t202 sky130_fd_pr__pfet_01v8_hvt ad=0.26 pd=2.52 as=0.26 ps=2.52 w=1 l=0.15
X141 a_14799_7041# a_14625_7445# a_14915_7433# VSS.t180 sky130_fd_pr__nfet_01v8 ad=0.0864 pd=0.91 as=0.12 ps=1.08 w=0.64 l=0.15
X142 VDD.t160 eob.t5 a_12322_10357# VDD.t159 sky130_fd_pr__pfet_01v8_hvt ad=0.122 pd=1.42 as=0.122 ps=1.42 w=0.42 l=0.15
X143 a_13844_6793# a_13563_6427# a_13751_6427# VDD.t46 sky130_fd_pr__pfet_01v8_hvt ad=0.0567 pd=0.69 as=0.0662 ps=0.735 w=0.42 l=0.15
X144 a_17425_6709# a_17017_6427# a_17191_6401# VDD.t15 sky130_fd_pr__pfet_01v8_hvt ad=0.0882 pd=1.05 as=0.123 ps=1.17 w=0.84 l=0.15
X145 VDD.t90 VDD.t89 a_16704_5987# VDD.t57 sky130_fd_pr__pfet_01v8_hvt ad=0.154 pd=1.34 as=0.166 ps=1.8 w=0.64 l=0.15
X146 x1[5].Q_N a_17191_5761# VSS.t185 VSS.t184 sky130_fd_pr__nfet_01v8 ad=0.169 pd=1.82 as=0.097 ps=0.975 w=0.65 l=0.15
X147 VDD.t35 a_14312_7267# a_14262_7067# VDD.t32 sky130_fd_pr__pfet_01v8_hvt ad=0.225 pd=1.38 as=0.113 ps=1.11 w=0.84 l=0.15
X148 VSS.t68 x3.X a_13397_5793# VSS.t64 sky130_fd_pr__nfet_01v8 ad=0.0567 pd=0.69 as=0.109 ps=1.36 w=0.42 l=0.15
X149 a_14018_5761# VDD.t87 VDD.t88 VDD.t54 sky130_fd_pr__pfet_01v8_hvt ad=0.147 pd=1.23 as=0.0798 ps=0.8 w=0.42 l=0.15
X150 x2.x9.output_stack delay_code[1].t1 x2.x3[1].floating VSS.t134 sky130_fd_pr__nfet_01v8 ad=0.0966 pd=0.88 as=0.122 ps=1.42 w=0.42 l=0.15
X151 a_14734_6427# a_13397_6427# a_14625_6427# VSS.t161 sky130_fd_pr__nfet_01v8 ad=0.066 pd=0.745 as=0.0711 ps=0.755 w=0.36 l=0.15
X152 a_15033_5787# a_14625_6165# a_14799_5761# VDD.t24 sky130_fd_pr__pfet_01v8_hvt ad=0.0882 pd=1.05 as=0.123 ps=1.17 w=0.84 l=0.15
X153 a_12457_8692# eob.t6 a_12385_8692# VSS.t23 sky130_fd_pr__nfet_01v8 ad=0.122 pd=1.42 as=0.0441 ps=0.63 w=0.42 l=0.15
X154 a_16236_6793# a_15789_6427# a_16143_6427# VSS.t19 sky130_fd_pr__nfet_01v8 ad=0.0684 pd=0.74 as=0.066 ps=0.745 w=0.36 l=0.15
X155 sar_retimer[5].t0 a_17898_5803# VDD.t218 VDD.t0 sky130_fd_pr__pfet_01v8_hvt ad=0.26 pd=2.52 as=0.149 ps=1.33 w=1 l=0.15
X156 a_12410_9943# eob.t7 a_12322_9805# VDD.t175 sky130_fd_pr__pfet_01v8_hvt ad=0.122 pd=1.42 as=0.122 ps=1.42 w=0.42 l=0.15
X157 VDD.t169 a_16704_6401# a_16654_6709# VDD.t168 sky130_fd_pr__pfet_01v8_hvt ad=0.225 pd=1.38 as=0.113 ps=1.11 w=0.84 l=0.15
X158 a_17103_6793# a_15955_6427# a_17017_6427# VDD.t164 sky130_fd_pr__pfet_01v8_hvt ad=0.0924 pd=0.86 as=0.0567 ps=0.69 w=0.42 l=0.15
X159 a_14734_6165# a_13397_5793# a_14625_6165# VSS.t161 sky130_fd_pr__nfet_01v8 ad=0.066 pd=0.745 as=0.0711 ps=0.755 w=0.36 l=0.15
X160 VDD.t116 a_16704_5987# a_17425_5787# VDD.t7 sky130_fd_pr__pfet_01v8_hvt ad=0.218 pd=2.2 as=0.0882 ps=1.05 w=0.84 l=0.15
X161 a_16550_7433# VDD.t246 VSS.t84 VSS.t83 sky130_fd_pr__nfet_01v8 ad=0.101 pd=0.99 as=0.084 ps=0.82 w=0.42 l=0.15
X162 VSS.t116 a_14799_6401# a_14734_6427# VSS.t115 sky130_fd_pr__nfet_01v8 ad=0.0588 pd=0.7 as=0.066 ps=0.745 w=0.42 l=0.15
X163 VSS.t129 a_14018_5761# a_13952_6165# VSS.t128 sky130_fd_pr__nfet_01v8 ad=0.084 pd=0.82 as=0.0671 ps=0.75 w=0.42 l=0.15
X164 a_16236_5787# a_15789_5793# a_16143_5787# VSS.t19 sky130_fd_pr__nfet_01v8 ad=0.0684 pd=0.74 as=0.066 ps=0.745 w=0.36 l=0.15
X165 a_16410_5121# VDD.t84 VDD.t86 VDD.t85 sky130_fd_pr__pfet_01v8_hvt ad=0.147 pd=1.23 as=0.0798 ps=0.8 w=0.42 l=0.15
X166 a_13844_6793# a_13397_6427# a_13751_6427# VSS.t160 sky130_fd_pr__nfet_01v8 ad=0.0684 pd=0.74 as=0.066 ps=0.745 w=0.36 l=0.15
X167 VDD.t228 a_17191_6401# a_17898_6427# VDD.t199 sky130_fd_pr__pfet_01v8_hvt ad=0.149 pd=1.33 as=0.166 ps=1.8 w=0.64 l=0.15
X168 a_15955_5793# a_15789_5793# VDD.t18 VDD.t17 sky130_fd_pr__pfet_01v8_hvt ad=0.166 pd=1.8 as=0.0864 ps=0.91 w=0.64 l=0.15
X169 a_16550_6153# a_16704_5987# a_16410_5761# VSS.t57 sky130_fd_pr__nfet_01v8 ad=0.166 pd=1.8 as=0.0864 ps=0.91 w=0.64 l=0.15
X170 a_16654_5429# a_16236_5513# a_16410_5121# VDD.t29 sky130_fd_pr__pfet_01v8_hvt ad=0.113 pd=1.11 as=0.147 ps=1.23 w=0.84 l=0.15
X171 x2.x9.output_stack eob.t8 a_12385_8968# VSS.t23 sky130_fd_pr__nfet_01v8 ad=0.122 pd=1.42 as=0.0441 ps=0.63 w=0.42 l=0.15
X172 a_14711_6793# a_13563_6427# a_14625_6427# VDD.t45 sky130_fd_pr__pfet_01v8_hvt ad=0.0924 pd=0.86 as=0.0567 ps=0.69 w=0.42 l=0.15
X173 sar_retimer[4].t0 a_15506_5803# VDD.t204 VDD.t27 sky130_fd_pr__pfet_01v8_hvt ad=0.26 pd=2.52 as=0.149 ps=1.33 w=1 l=0.15
X174 VDD.t83 VDD.t81 a_14312_7267# VDD.t82 sky130_fd_pr__pfet_01v8_hvt ad=0.154 pd=1.34 as=0.166 ps=1.8 w=0.64 l=0.15
X175 a_13844_5787# a_13397_5793# a_13751_5787# VSS.t160 sky130_fd_pr__nfet_01v8 ad=0.0684 pd=0.74 as=0.066 ps=0.745 w=0.36 l=0.15
X176 VSS.t86 VDD.t247 a_16704_5987# VSS.t85 sky130_fd_pr__nfet_01v8 ad=0.097 pd=0.975 as=0.109 ps=1.36 w=0.42 l=0.15
X177 a_14262_6709# a_13844_6793# a_14018_6401# VDD.t170 sky130_fd_pr__pfet_01v8_hvt ad=0.113 pd=1.11 as=0.147 ps=1.23 w=0.84 l=0.15
X178 a_16236_5513# a_15955_5147# a_16143_5147# VDD.t141 sky130_fd_pr__pfet_01v8_hvt ad=0.0567 pd=0.69 as=0.0662 ps=0.735 w=0.42 l=0.15
X179 a_16143_7067# sar_logic[1].t0 VDD.t177 VDD.t176 sky130_fd_pr__pfet_01v8_hvt ad=0.0662 pd=0.735 as=0.109 ps=1.36 w=0.42 l=0.15
X180 VSS.t175 a_17191_7041# a_17898_7083# VSS.t174 sky130_fd_pr__nfet_01v8 ad=0.097 pd=0.975 as=0.109 ps=1.36 w=0.42 l=0.15
X181 a_14483_5429# a_14018_5121# VDD.t220 VDD.t173 sky130_fd_pr__pfet_01v8_hvt ad=0.174 pd=1.41 as=0.225 ps=1.38 w=0.84 l=0.15
X182 VSS.t88 VDD.t248 a_14312_7267# VSS.t87 sky130_fd_pr__nfet_01v8 ad=0.097 pd=0.975 as=0.109 ps=1.36 w=0.42 l=0.15
X183 a_16550_5147# VDD.t249 VSS.t90 VSS.t89 sky130_fd_pr__nfet_01v8 ad=0.101 pd=0.99 as=0.084 ps=0.82 w=0.42 l=0.15
X184 a_12385_8554# eob.t9 a_12297_8554# VSS.t4 sky130_fd_pr__nfet_01v8 ad=0.0441 pd=0.63 as=0.122 ps=1.42 w=0.42 l=0.15
X185 a_17307_6427# VDD.t250 VSS.t92 VSS.t91 sky130_fd_pr__nfet_01v8 ad=0.12 pd=1.08 as=0.0588 ps=0.7 w=0.42 l=0.15
X186 a_17307_6427# a_16704_6401# a_17191_6401# VSS.t56 sky130_fd_pr__nfet_01v8 ad=0.166 pd=1.8 as=0.0864 ps=0.91 w=0.64 l=0.15
X187 a_14799_5761# a_14625_6165# a_14915_6153# VSS.t106 sky130_fd_pr__nfet_01v8 ad=0.0864 pd=0.91 as=0.12 ps=1.08 w=0.64 l=0.15
X188 a_13844_5513# a_13563_5147# a_13751_5147# VDD.t143 sky130_fd_pr__pfet_01v8_hvt ad=0.0567 pd=0.69 as=0.0662 ps=0.735 w=0.42 l=0.15
X189 a_13751_7067# sar_logic[0].t0 VDD.t22 VDD.t21 sky130_fd_pr__pfet_01v8_hvt ad=0.0662 pd=0.735 as=0.109 ps=1.36 w=0.42 l=0.15
X190 VDD.t34 a_14312_7267# a_15033_7067# VDD.t30 sky130_fd_pr__pfet_01v8_hvt ad=0.218 pd=2.2 as=0.0882 ps=1.05 w=0.84 l=0.15
X191 VDD.t198 a_17191_7041# a_17103_7067# VDD.t197 sky130_fd_pr__pfet_01v8_hvt ad=0.0819 pd=0.81 as=0.0924 ps=0.86 w=0.42 l=0.15
X192 a_15033_6709# a_14625_6427# a_14799_6401# VDD.t158 sky130_fd_pr__pfet_01v8_hvt ad=0.0882 pd=1.05 as=0.123 ps=1.17 w=0.84 l=0.15
X193 a_17017_6427# a_15789_6427# a_16875_6709# VDD.t3 sky130_fd_pr__pfet_01v8_hvt ad=0.0567 pd=0.69 as=0.174 ps=1.41 w=0.42 l=0.15
X194 a_13563_7073# a_13397_7073# VDD.t145 VDD.t144 sky130_fd_pr__pfet_01v8_hvt ad=0.166 pd=1.8 as=0.0864 ps=0.91 w=0.64 l=0.15
X195 a_17191_5121# a_17017_5147# a_17307_5147# VSS.t49 sky130_fd_pr__nfet_01v8 ad=0.0864 pd=0.91 as=0.12 ps=1.08 w=0.64 l=0.15
X196 a_17191_5761# VDD.t79 VDD.t80 VDD.t51 sky130_fd_pr__pfet_01v8_hvt ad=0.123 pd=1.17 as=0.0819 ps=0.81 w=0.42 l=0.15
X197 VDD.t211 a_16410_7041# a_16320_7067# VDD.t137 sky130_fd_pr__pfet_01v8_hvt ad=0.0798 pd=0.8 as=0.0945 ps=0.87 w=0.42 l=0.15
X198 a_14915_6427# VDD.t251 VSS.t94 VSS.t93 sky130_fd_pr__nfet_01v8 ad=0.12 pd=1.08 as=0.0588 ps=0.7 w=0.42 l=0.15
X199 VSS.t234 a_17191_5121# a_17898_5147# VSS.t233 sky130_fd_pr__nfet_01v8 ad=0.097 pd=0.975 as=0.109 ps=1.36 w=0.42 l=0.15
X200 VDD.t167 a_16704_6401# a_17425_6709# VDD.t166 sky130_fd_pr__pfet_01v8_hvt ad=0.218 pd=2.2 as=0.0882 ps=1.05 w=0.84 l=0.15
X201 a_17103_5513# a_15955_5147# a_17017_5147# VDD.t140 sky130_fd_pr__pfet_01v8_hvt ad=0.0924 pd=0.86 as=0.0567 ps=0.69 w=0.42 l=0.15
X202 VSS.t207 VDD.t252 a_14312_5121# VSS.t206 sky130_fd_pr__nfet_01v8 ad=0.097 pd=0.975 as=0.109 ps=1.36 w=0.42 l=0.15
X203 x2.x5[7].floating.t4 x2.x10.Y.t5 x2.x9.output_stack VDD.t115 sky130_fd_pr__pfet_01v8 ad=0.122 pd=1.42 as=0.101 ps=0.9 w=0.42 l=0.15
X204 VDD.t113 x3.A a_18499_9105# VDD.t112 sky130_fd_pr__pfet_01v8_hvt ad=0.149 pd=1.33 as=0.166 ps=1.8 w=0.64 l=0.15
X205 VDD.t111 x3.A a_18195_9015# VSS.t54 sky130_fd_pr__nfet_01v8 ad=0.0693 pd=0.75 as=0.0651 ps=0.73 w=0.42 l=0.15
X206 a_14158_7433# VDD.t253 VSS.t209 VSS.t208 sky130_fd_pr__nfet_01v8 ad=0.101 pd=0.99 as=0.084 ps=0.82 w=0.42 l=0.15
X207 VSS.t53 x3.A a_18499_9105# VSS.t52 sky130_fd_pr__nfet_01v8 ad=0.097 pd=0.975 as=0.109 ps=1.36 w=0.42 l=0.15
X208 VDD.t153 a_14799_6401# a_15506_6427# VDD.t152 sky130_fd_pr__pfet_01v8_hvt ad=0.149 pd=1.33 as=0.166 ps=1.8 w=0.64 l=0.15
X209 x2.x5[7].floating.t3 x2.x10.Y.t6 x2.x9.output_stack VDD.t115 sky130_fd_pr__pfet_01v8 ad=0.122 pd=1.42 as=0.101 ps=0.9 w=0.42 l=0.15
X210 x1[3].Q_N a_17191_6401# VDD.t227 VDD.t195 sky130_fd_pr__pfet_01v8_hvt ad=0.26 pd=2.52 as=0.154 ps=1.34 w=1 l=0.15
X211 a_14625_6165# a_13397_5793# a_14483_5787# VDD.t41 sky130_fd_pr__pfet_01v8_hvt ad=0.0567 pd=0.69 as=0.174 ps=1.41 w=0.42 l=0.15
X212 x1[6].Q_N a_14799_5121# VSS.t171 VSS.t170 sky130_fd_pr__nfet_01v8 ad=0.169 pd=1.82 as=0.097 ps=0.975 w=0.65 l=0.15
X213 a_14711_5513# a_13563_5147# a_14625_5147# VDD.t142 sky130_fd_pr__pfet_01v8_hvt ad=0.0924 pd=0.86 as=0.0567 ps=0.69 w=0.42 l=0.15
X214 a_12410_9943# eob.t10 a_12322_10081# VDD.t238 sky130_fd_pr__pfet_01v8_hvt ad=0.122 pd=1.42 as=0.122 ps=1.42 w=0.42 l=0.15
X215 a_16344_7445# a_15955_7073# a_16236_7067# VSS.t141 sky130_fd_pr__nfet_01v8 ad=0.0671 pd=0.75 as=0.0684 ps=0.74 w=0.36 l=0.15
X216 VDD.t213 a_14799_5761# a_14711_5787# VDD.t189 sky130_fd_pr__pfet_01v8_hvt ad=0.0819 pd=0.81 as=0.0924 ps=0.86 w=0.42 l=0.15
X217 a_16550_5147# a_16704_5121# a_16410_5121# VSS.t10 sky130_fd_pr__nfet_01v8 ad=0.166 pd=1.8 as=0.0864 ps=0.91 w=0.64 l=0.15
X218 a_18195_9356# x3.A VSS.t51 VDD.t110 sky130_fd_pr__pfet_01v8_hvt ad=0.13 pd=1.46 as=0.0693 ps=0.75 w=0.42 l=0.15
X219 a_17017_6427# a_15955_6427# a_16922_6427# VSS.t126 sky130_fd_pr__nfet_01v8 ad=0.0711 pd=0.755 as=0.0935 ps=0.965 w=0.36 l=0.15
X220 VSS.t232 a_14799_7041# a_15506_7083# VSS.t231 sky130_fd_pr__nfet_01v8 ad=0.097 pd=0.975 as=0.109 ps=1.36 w=0.42 l=0.15
X221 a_14799_6401# VDD.t77 VDD.t78 VDD.t48 sky130_fd_pr__pfet_01v8_hvt ad=0.123 pd=1.17 as=0.0819 ps=0.81 w=0.42 l=0.15
X222 a_14158_6427# a_14312_6401# a_14018_6401# VSS.t36 sky130_fd_pr__nfet_01v8 ad=0.166 pd=1.8 as=0.0864 ps=0.91 w=0.64 l=0.15
X223 a_14158_5147# VDD.t254 VSS.t211 VSS.t210 sky130_fd_pr__nfet_01v8 ad=0.101 pd=0.99 as=0.084 ps=0.82 w=0.42 l=0.15
X224 a_12410_10219# eob.t11 a_12322_10357# VDD.t233 sky130_fd_pr__pfet_01v8_hvt ad=0.122 pd=1.42 as=0.122 ps=1.42 w=0.42 l=0.15
X225 a_13952_7445# a_13563_7073# a_13844_7067# VSS.t78 sky130_fd_pr__nfet_01v8 ad=0.0671 pd=0.75 as=0.0684 ps=0.74 w=0.36 l=0.15
X226 a_16320_7067# a_15789_7073# a_16236_7067# VDD.t4 sky130_fd_pr__pfet_01v8_hvt ad=0.0945 pd=0.87 as=0.0567 ps=0.69 w=0.42 l=0.15
X227 a_17307_7433# a_16704_7267# a_17191_7041# VSS.t195 sky130_fd_pr__nfet_01v8 ad=0.166 pd=1.8 as=0.0864 ps=0.91 w=0.64 l=0.15
X228 a_17017_6165# a_15955_5793# a_16922_6109# VSS.t126 sky130_fd_pr__nfet_01v8 ad=0.0711 pd=0.755 as=0.0935 ps=0.965 w=0.36 l=0.15
X229 a_17017_5147# a_15789_5147# a_16875_5429# VDD.t19 sky130_fd_pr__pfet_01v8_hvt ad=0.0567 pd=0.69 as=0.174 ps=1.41 w=0.42 l=0.15
X230 VDD.t125 x3.X a_15789_6427# VDD.t122 sky130_fd_pr__pfet_01v8_hvt ad=0.0864 pd=0.91 as=0.166 ps=1.8 w=0.64 l=0.15
X231 x2.x5[7].floating.t2 x2.x10.Y.t7 x2.x9.output_stack VDD.t115 sky130_fd_pr__pfet_01v8 ad=0.122 pd=1.42 as=0.101 ps=0.9 w=0.42 l=0.15
X232 a_14625_7445# a_13563_7073# a_14530_7389# VSS.t77 sky130_fd_pr__nfet_01v8 ad=0.0711 pd=0.755 as=0.0935 ps=0.965 w=0.36 l=0.15
X233 VDD.t14 a_14018_7041# a_13928_7067# VDD.t13 sky130_fd_pr__pfet_01v8_hvt ad=0.0798 pd=0.8 as=0.0945 ps=0.87 w=0.42 l=0.15
X234 a_15955_5793# a_15789_5793# VSS.t18 VSS.t17 sky130_fd_pr__nfet_01v8 ad=0.109 pd=1.36 as=0.0567 ps=0.69 w=0.42 l=0.15