* NGSPICE file created from hgu_sarlogic_sw_ctrl_flat.ext - technology: sky130A

.subckt hgu_sarlogic_sw_ctrl_RC VSS_SW[1] VSS_SW[2] VSS_SW[3] VSS_SW[4] VSS_SW[5]
+ VSS_SW[6] VSS_SW[7] VDD_SW[2] VDD_SW[3] VDD_SW[4] VDD_SW[5] VDD_SW[6] VDD_SW[7]
+ D[4] D[6] D[7] check[0] check[1] check[2] check[3] check[4] check[6] VDD_SW_b[1]
+ VDD_SW_b[2] VDD_SW_b[3] VDD_SW_b[4] VDD_SW_b[5] VDD_SW_b[6] VDD_SW_b[7] VSS_SW_b[1]
+ VSS_SW_b[2] VSS_SW_b[3] VSS_SW_b[4] VSS_SW_b[5] VSS_SW_b[6] VSS_SW_b[7] D[1] VDD_SW[1]
+ ready reset D[2] check[5] D[3] D[5] VSS VDD
X0 a_3420_212# x9.X VSS.t210 VSS.t209 sky130_fd_pr__nfet_01v8 ad=0.109 pd=1.36 as=0.0567 ps=0.69 w=0.42 l=0.15
X1 VSS.t20 VDD.t753 a_10509_601# VSS.t19 sky130_fd_pr__nfet_01v8 ad=0.097 pd=0.975 as=0.109 ps=1.36 w=0.42 l=0.15
X2 a_11539_1642# VSS.t718 a_11325_1642# VDD.t56 sky130_fd_pr__pfet_01v8_hvt ad=0.0767 pd=0.785 as=0.193 ps=1.34 w=0.42 l=0.15
X3 VSS.t22 VDD.t754 a_7769_n62# VSS.t21 sky130_fd_pr__nfet_01v8 ad=0.0703 pd=0.755 as=0.109 ps=1.03 w=0.42 l=0.15
X4 VDD.t559 a_15293_601# a_16024_909# VDD.t558 sky130_fd_pr__pfet_01v8_hvt ad=0.218 pd=2.2 as=0.0882 ps=1.05 w=0.84 l=0.15
X5 VSS.t579 a_5812_212# a_5813_n88# VSS.t578 sky130_fd_pr__nfet_01v8 ad=0.0567 pd=0.69 as=0.109 ps=1.36 w=0.42 l=0.15
X6 a_5927_n62# a_5812_212# a_5504_106# VSS.t577 sky130_fd_pr__nfet_01v8 ad=0.116 pd=1.09 as=0.0486 ps=0.63 w=0.36 l=0.15
X7 a_5323_2457# x30.A VSS.t18 VSS.t17 sky130_fd_pr__nfet_01v8 ad=0.0878 pd=0.92 as=0.0878 ps=0.92 w=0.65 l=0.15
X8 VDD.t717 x3.X a_939_2457# VDD.t716 sky130_fd_pr__pfet_01v8_hvt ad=0.135 pd=1.27 as=0.135 ps=1.27 w=1 l=0.15
X9 a_5271_n62# x2.X.t32 VSS.t166 VSS.t165 sky130_fd_pr__nfet_01v8 ad=0.109 pd=1.36 as=0.097 ps=0.975 w=0.42 l=0.15
X10 a_13300_993# a_11987_627# a_13216_993# VDD.t222 sky130_fd_pr__pfet_01v8_hvt ad=0.0787 pd=0.795 as=0.0567 ps=0.69 w=0.42 l=0.15
X11 VDD.t415 VDD.t413 a_10509_601# VDD.t414 sky130_fd_pr__pfet_01v8_hvt ad=0.154 pd=1.34 as=0.17 ps=1.81 w=0.64 l=0.15
X12 VDD.t184 x16.X a_11987_627# VDD.t183 sky130_fd_pr__pfet_01v8_hvt ad=0.0864 pd=0.91 as=0.166 ps=1.8 w=0.64 l=0.15
X13 a_14887_1642# x9.A1.t32 a_14428_1467# VDD.t158 sky130_fd_pr__pfet_01v8_hvt ad=0.0441 pd=0.63 as=0.193 ps=1.34 w=0.42 l=0.15
X14 a_7896_106# a_8205_n88# a_8140_n62# VSS.t526 sky130_fd_pr__nfet_01v8 ad=0.0486 pd=0.63 as=0.066 ps=0.745 w=0.36 l=0.15
X15 VSS.t256 a_9742_n88# VSS_SW_b[3].t0 VSS.t255 sky130_fd_pr__nfet_01v8 ad=0.097 pd=0.975 as=0.169 ps=1.82 w=0.65 l=0.15
X16 VSS.t592 a_14857_1289# a_14791_1315# VSS.t591 sky130_fd_pr__nfet_01v8 ad=0.145 pd=1.11 as=0.0693 ps=0.75 w=0.42 l=0.15
X17 VDD.t244 a_1415_895# a_2136_627# VDD.t243 sky130_fd_pr__pfet_01v8_hvt ad=0.149 pd=1.33 as=0.166 ps=1.8 w=0.64 l=0.15
X18 VDD.t517 a_8591_895# a_8516_993# VDD.t516 sky130_fd_pr__pfet_01v8_hvt ad=0.0956 pd=0.875 as=0.0787 ps=0.795 w=0.42 l=0.15
X19 x7.X a_1757_1642# VSS.t361 VSS.t360 sky130_fd_pr__nfet_01v8 ad=0.169 pd=1.82 as=0.113 ps=1.04 w=0.65 l=0.15
X20 a_1501_122# a_1029_n88# a_1745_304# VDD.t475 sky130_fd_pr__pfet_01v8_hvt ad=0.0567 pd=0.69 as=0.0945 ps=0.87 w=0.42 l=0.15
X21 a_8933_1642# x9.A1.t33 a_8861_1642# VDD.t159 sky130_fd_pr__pfet_01v8_hvt ad=0.193 pd=1.34 as=0.0441 ps=0.63 w=0.42 l=0.15
X22 a_8933_1315# a_8679_1642# VSS.t350 VSS.t349 sky130_fd_pr__nfet_01v8 ad=0.0693 pd=0.75 as=0.145 ps=1.11 w=0.42 l=0.15
X23 a_9154_1315# x9.A1.t34 a_8933_1642# VSS.t198 sky130_fd_pr__nfet_01v8 ad=0.0693 pd=0.75 as=0.0997 ps=0.895 w=0.42 l=0.15
X24 VSS.t234 D[6].t0 a_4338_n62# VSS.t233 sky130_fd_pr__nfet_01v8 ad=0.109 pd=1.36 as=0.066 ps=0.745 w=0.42 l=0.15
X25 VDD.t679 check[1].t0 a_13461_1642# VDD.t678 sky130_fd_pr__pfet_01v8_hvt ad=0.0693 pd=0.75 as=0.118 ps=1.4 w=0.42 l=0.15
X26 a_10983_895# a_10824_993# a_11123_627# VSS.t549 sky130_fd_pr__nfet_01v8 ad=0.0864 pd=0.91 as=0.109 ps=1.03 w=0.64 l=0.15
X27 VSS.t75 check[1].t1 a_13461_1642# VSS.t74 sky130_fd_pr__nfet_01v8 ad=0.145 pd=1.11 as=0.109 ps=1.36 w=0.42 l=0.15
X28 VDD.t126 D[2].t0 a_13906_n62# VDD.t125 sky130_fd_pr__pfet_01v8_hvt ad=0.109 pd=1.36 as=0.0651 ps=0.73 w=0.42 l=0.15
X29 a_16298_n62# a_15381_n88# a_15853_122# VSS.t278 sky130_fd_pr__nfet_01v8 ad=0.066 pd=0.745 as=0.0675 ps=0.735 w=0.36 l=0.15
X30 a_15518_304# a_15381_n88# a_15072_106# VDD.t232 sky130_fd_pr__pfet_01v8_hvt ad=0.174 pd=1.41 as=0.0567 ps=0.69 w=0.42 l=0.15
X31 VDD_SW_b[6].t1 a_3807_895# VDD.t598 VDD.t597 sky130_fd_pr__pfet_01v8_hvt ad=0.26 pd=2.52 as=0.154 ps=1.34 w=1 l=0.15
X32 a_8731_627# a_8117_601# a_8591_895# VSS.t218 sky130_fd_pr__nfet_01v8 ad=0.166 pd=1.8 as=0.0864 ps=0.91 w=0.64 l=0.15
X33 a_10041_993# a_9595_627# a_9949_627# VDD.t176 sky130_fd_pr__pfet_01v8_hvt ad=0.0567 pd=0.69 as=0.0651 ps=0.73 w=0.42 l=0.15
X34 a_5462_220# a_5271_n62# VDD.t464 VDD.t463 sky130_fd_pr__pfet_01v8_hvt ad=0.0882 pd=1.05 as=0.218 ps=2.2 w=0.84 l=0.15
X35 VSS.t224 x16.X a_11987_627# VSS.t223 sky130_fd_pr__nfet_01v8 ad=0.0567 pd=0.69 as=0.109 ps=1.36 w=0.42 l=0.15
X36 x9.A1.t15 a_5323_2457# VSS.t492 VSS.t491 sky130_fd_pr__nfet_01v8 ad=0.0878 pd=0.92 as=0.0878 ps=0.92 w=0.65 l=0.15
X37 a_15608_993# a_14545_627# a_15464_909# VDD.t296 sky130_fd_pr__pfet_01v8_hvt ad=0.0567 pd=0.69 as=0.174 ps=1.41 w=0.42 l=0.15
X38 a_9949_627# D[3].t0 VDD.t477 VDD.t476 sky130_fd_pr__pfet_01v8_hvt ad=0.0651 pd=0.73 as=0.109 ps=1.36 w=0.42 l=0.15
X39 VDD.t341 a_76_1467# x6.X VDD.t340 sky130_fd_pr__pfet_01v8_hvt ad=0.158 pd=1.39 as=0.26 ps=2.52 w=1 l=0.15
X40 VDD.t557 a_15293_601# a_15243_909# VDD.t556 sky130_fd_pr__pfet_01v8_hvt ad=0.225 pd=1.38 as=0.113 ps=1.11 w=0.84 l=0.15
X41 a_8545_n62# a_8677_122# a_8409_n88# VSS.t522 sky130_fd_pr__nfet_01v8 ad=0.0974 pd=0.97 as=0.0864 ps=0.91 w=0.64 l=0.15
X42 a_11325_1642# x9.A1.t35 a_11253_1642# VDD.t538 sky130_fd_pr__pfet_01v8_hvt ad=0.193 pd=1.34 as=0.0441 ps=0.63 w=0.42 l=0.15
X43 VDD.t330 a_12134_n88# VSS_SW_b[2].t1 VDD.t329 sky130_fd_pr__pfet_01v8_hvt ad=0.154 pd=1.34 as=0.26 ps=2.52 w=1 l=0.15
X44 a_15585_n88# a_15853_122# a_15799_220# VDD.t339 sky130_fd_pr__pfet_01v8_hvt ad=0.147 pd=1.23 as=0.113 ps=1.11 w=0.84 l=0.15
X45 a_11325_1315# a_11071_1642# VSS.t506 VSS.t505 sky130_fd_pr__nfet_01v8 ad=0.0693 pd=0.75 as=0.145 ps=1.11 w=0.42 l=0.15
X46 VDD.t576 a_13193_n88# a_13126_304# VDD.t575 sky130_fd_pr__pfet_01v8_hvt ad=0.225 pd=1.38 as=0.174 ps=1.41 w=0.84 l=0.15
X47 VDD.t22 x30.A a_5323_2457# VDD.t21 sky130_fd_pr__pfet_01v8_hvt ad=0.135 pd=1.27 as=0.135 ps=1.27 w=1 l=0.15
X48 a_10532_n62# a_9742_n88# VSS.t254 VSS.t253 sky130_fd_pr__nfet_01v8 ad=0.066 pd=0.745 as=0.0703 ps=0.755 w=0.42 l=0.15
X49 a_1028_212# x7.X VSS.t530 VSS.t529 sky130_fd_pr__nfet_01v8 ad=0.109 pd=1.36 as=0.0567 ps=0.69 w=0.42 l=0.15
X50 a_5319_1642# x9.A1.t36 a_4860_1467# VDD.t539 sky130_fd_pr__pfet_01v8_hvt ad=0.0441 pd=0.63 as=0.193 ps=1.34 w=0.42 l=0.15
X51 a_10801_n88# a_10055_n62# a_10937_n62# VSS.t238 sky130_fd_pr__nfet_01v8 ad=0.0864 pd=0.91 as=0.166 ps=1.8 w=0.64 l=0.15
X52 a_8921_304# a_8409_n88# VDD.t101 VDD.t100 sky130_fd_pr__pfet_01v8_hvt ad=0.0945 pd=0.87 as=0.0798 ps=0.8 w=0.42 l=0.15
X53 VSS.t573 a_3420_212# a_3421_n88# VSS.t572 sky130_fd_pr__nfet_01v8 ad=0.0567 pd=0.69 as=0.109 ps=1.36 w=0.42 l=0.15
X54 VSS.t189 a_5289_1289# a_5223_1315# VSS.t188 sky130_fd_pr__nfet_01v8 ad=0.145 pd=1.11 as=0.0693 ps=0.75 w=0.42 l=0.15
X55 a_3807_895# x2.X.t33 VDD.t121 VDD.t120 sky130_fd_pr__pfet_01v8_hvt ad=0.132 pd=1.22 as=0.0956 ps=0.875 w=0.42 l=0.15
X56 a_15380_212# x20.X VSS.t236 VSS.t235 sky130_fd_pr__nfet_01v8 ad=0.109 pd=1.36 as=0.0567 ps=0.69 w=0.42 l=0.15
X57 VSS.t286 a_7823_601# a_7757_627# VSS.t285 sky130_fd_pr__nfet_01v8 ad=0.0882 pd=0.84 as=0.0671 ps=0.75 w=0.42 l=0.15
X58 a_2773_627# D[6].t1 VSS.t344 VSS.t343 sky130_fd_pr__nfet_01v8 ad=0.066 pd=0.745 as=0.109 ps=1.36 w=0.42 l=0.15
X59 a_12433_993# a_12153_627# a_12341_627# VSS.t363 sky130_fd_pr__nfet_01v8 ad=0.0675 pd=0.735 as=0.066 ps=0.745 w=0.36 l=0.15
X60 VDD.t280 check[4].t0 a_6753_1642# VDD.t279 sky130_fd_pr__pfet_01v8_hvt ad=0.158 pd=1.39 as=0.0767 ps=0.785 w=0.42 l=0.15
X61 VSS.t24 VDD.t755 a_8545_n62# VSS.t23 sky130_fd_pr__nfet_01v8 ad=0.0882 pd=0.84 as=0.0974 ps=0.97 w=0.42 l=0.15
X62 a_12134_n88# a_12680_106# a_12638_220# VDD.t342 sky130_fd_pr__pfet_01v8_hvt ad=0.132 pd=1.22 as=0.0882 ps=1.05 w=0.84 l=0.15
X63 VSS.t330 check[4].t1 a_6760_1315# VSS.t329 sky130_fd_pr__nfet_01v8 ad=0.113 pd=1.04 as=0.0693 ps=0.75 w=0.42 l=0.15
X64 VSS.t709 a_305_2457# x3.X VSS.t708 sky130_fd_pr__nfet_01v8 ad=0.0878 pd=0.92 as=0.0878 ps=0.92 w=0.65 l=0.15
X65 VDD.t748 a_12607_601# a_12517_993# VDD.t747 sky130_fd_pr__pfet_01v8_hvt ad=0.0798 pd=0.8 as=0.0945 ps=0.87 w=0.42 l=0.15
X66 a_6753_1642# VSS.t719 a_6539_1642# VDD.t55 sky130_fd_pr__pfet_01v8_hvt ad=0.0767 pd=0.785 as=0.193 ps=1.34 w=0.42 l=0.15
X67 a_7757_627# a_7203_627# a_7649_993# VSS.t113 sky130_fd_pr__nfet_01v8 ad=0.0671 pd=0.75 as=0.0675 ps=0.735 w=0.36 l=0.15
X68 VDD_SW[4].t0 a_9312_627# VSS.t634 VSS.t633 sky130_fd_pr__nfet_01v8 ad=0.169 pd=1.82 as=0.097 ps=0.975 w=0.65 l=0.15
X69 VSS.t26 VDD.t756 a_8117_601# VSS.t25 sky130_fd_pr__nfet_01v8 ad=0.097 pd=0.975 as=0.109 ps=1.36 w=0.42 l=0.15
X70 VSS.t682 x3.X a_939_2457# VSS.t681 sky130_fd_pr__nfet_01v8 ad=0.0878 pd=0.92 as=0.0878 ps=0.92 w=0.65 l=0.15
X71 a_2927_1642# x9.A1.t37 a_2468_1467# VDD.t540 sky130_fd_pr__pfet_01v8_hvt ad=0.0441 pd=0.63 as=0.193 ps=1.34 w=0.42 l=0.15
X72 a_4862_90# a_4958_n88# VDD.t324 VDD.t323 sky130_fd_pr__pfet_01v8_hvt ad=0.166 pd=1.8 as=0.149 ps=1.33 w=0.64 l=0.15
X73 VDD.t204 a_13375_895# a_14096_627# VDD.t203 sky130_fd_pr__pfet_01v8_hvt ad=0.149 pd=1.33 as=0.166 ps=1.8 w=0.64 l=0.15
X74 VSS.t697 D[7].t0 a_1946_n62# VSS.t696 sky130_fd_pr__nfet_01v8 ad=0.109 pd=1.36 as=0.066 ps=0.745 w=0.42 l=0.15
X75 a_487_n62# x2.X.t34 VSS.t168 VSS.t167 sky130_fd_pr__nfet_01v8 ad=0.109 pd=1.36 as=0.097 ps=0.975 w=0.42 l=0.15
X76 x30.A a_4689_2457# VDD.t278 VDD.t277 sky130_fd_pr__pfet_01v8_hvt ad=0.135 pd=1.27 as=0.135 ps=1.27 w=1 l=0.15
X77 VDD.t509 a_5323_2457# x9.A1.t31 VDD.t508 sky130_fd_pr__pfet_01v8_hvt ad=0.135 pd=1.27 as=0.135 ps=1.27 w=1 l=0.15
X78 x9.A1.t14 a_5323_2457# VSS.t490 VSS.t489 sky130_fd_pr__nfet_01v8 ad=0.0878 pd=0.92 as=0.0878 ps=0.92 w=0.65 l=0.15
X79 VSS.t537 a_2897_1289# a_2831_1315# VSS.t536 sky130_fd_pr__nfet_01v8 ad=0.145 pd=1.11 as=0.0693 ps=0.75 w=0.42 l=0.15
X80 VDD.t683 check[3].t0 a_8679_1642# VDD.t682 sky130_fd_pr__pfet_01v8_hvt ad=0.0693 pd=0.75 as=0.118 ps=1.4 w=0.42 l=0.15
X81 VDD.t412 VDD.t410 a_1233_n88# VDD.t411 sky130_fd_pr__pfet_01v8_hvt ad=0.0798 pd=0.8 as=0.147 ps=1.23 w=0.42 l=0.15
X82 VDD.t305 a_7681_1289# a_7711_1642# VDD.t304 sky130_fd_pr__pfet_01v8_hvt ad=0.0693 pd=0.75 as=0.0441 ps=0.63 w=0.42 l=0.15
X83 VSS.t58 check[3].t1 a_8679_1642# VSS.t57 sky130_fd_pr__nfet_01v8 ad=0.145 pd=1.11 as=0.109 ps=1.36 w=0.42 l=0.15
X84 VDD.t303 check[0].t0 a_16323_1642# VDD.t302 sky130_fd_pr__pfet_01v8_hvt ad=0.158 pd=1.39 as=0.0767 ps=0.785 w=0.42 l=0.15
X85 VSS.t28 VDD.t757 a_941_601# VSS.t27 sky130_fd_pr__nfet_01v8 ad=0.097 pd=0.975 as=0.109 ps=1.36 w=0.42 l=0.15
X86 VSS.t656 check[0].t1 a_16330_1315# VSS.t655 sky130_fd_pr__nfet_01v8 ad=0.113 pd=1.04 as=0.0693 ps=0.75 w=0.42 l=0.15
X87 a_6730_n62# a_5813_n88# a_6285_122# VSS.t561 sky130_fd_pr__nfet_01v8 ad=0.066 pd=0.745 as=0.0675 ps=0.735 w=0.36 l=0.15
X88 a_10596_212# x15.X VDD.t168 VDD.t167 sky130_fd_pr__pfet_01v8_hvt ad=0.166 pd=1.8 as=0.0864 ps=0.91 w=0.64 l=0.15
X89 a_5950_304# a_5813_n88# a_5504_106# VDD.t589 sky130_fd_pr__pfet_01v8_hvt ad=0.174 pd=1.41 as=0.0567 ps=0.69 w=0.42 l=0.15
X90 a_15143_627# a_15293_601# a_14999_601# VSS.t528 sky130_fd_pr__nfet_01v8 ad=0.166 pd=1.8 as=0.0864 ps=0.91 w=0.64 l=0.15
X91 a_3732_993# a_2419_627# a_3648_993# VDD.t537 sky130_fd_pr__pfet_01v8_hvt ad=0.0787 pd=0.795 as=0.0567 ps=0.69 w=0.42 l=0.15
X92 a_13126_304# a_12989_n88# a_12680_106# VDD.t214 sky130_fd_pr__pfet_01v8_hvt ad=0.174 pd=1.41 as=0.0567 ps=0.69 w=0.42 l=0.15
X93 VSS.t626 a_939_2457# x2.X.t15 VSS.t625 sky130_fd_pr__nfet_01v8 ad=0.0878 pd=0.92 as=0.0878 ps=0.92 w=0.65 l=0.15
X94 a_16323_1642# VSS.t720 a_16109_1642# VDD.t54 sky130_fd_pr__pfet_01v8_hvt ad=0.0767 pd=0.785 as=0.193 ps=1.34 w=0.42 l=0.15
X95 VDD.t409 VDD.t407 a_941_601# VDD.t408 sky130_fd_pr__pfet_01v8_hvt ad=0.154 pd=1.34 as=0.17 ps=1.81 w=0.64 l=0.15
X96 a_3070_220# a_2879_n62# VDD.t218 VDD.t217 sky130_fd_pr__pfet_01v8_hvt ad=0.0882 pd=1.05 as=0.218 ps=2.2 w=0.84 l=0.15
X97 VDD.t246 reset.t0 a_29_2457# VDD.t245 sky130_fd_pr__pfet_01v8_hvt ad=0.115 pd=1.08 as=0.205 ps=2.1 w=0.79 l=0.15
X98 a_13216_993# a_12153_627# a_13072_909# VDD.t311 sky130_fd_pr__pfet_01v8_hvt ad=0.0567 pd=0.69 as=0.174 ps=1.41 w=0.42 l=0.15
X99 a_7557_627# D[4].t0 VDD.t161 VDD.t160 sky130_fd_pr__pfet_01v8_hvt ad=0.0651 pd=0.73 as=0.109 ps=1.36 w=0.42 l=0.15
X100 VSS.t334 a_14428_1467# x18.X VSS.t333 sky130_fd_pr__nfet_01v8 ad=0.113 pd=1.04 as=0.169 ps=1.82 w=0.65 l=0.15
X101 a_14945_n62# a_15072_106# a_14526_n88# VSS.t586 sky130_fd_pr__nfet_01v8 ad=0.109 pd=1.03 as=0.0864 ps=0.91 w=0.64 l=0.15
X102 x9.A1.t13 a_5323_2457# VSS.t488 VSS.t487 sky130_fd_pr__nfet_01v8 ad=0.0878 pd=0.92 as=0.0878 ps=0.92 w=0.65 l=0.15
X103 VSS.t500 a_8591_895# a_8539_627# VSS.t499 sky130_fd_pr__nfet_01v8 ad=0.0703 pd=0.755 as=0.066 ps=0.745 w=0.42 l=0.15
X104 VDD.t441 a_6199_895# a_6124_993# VDD.t440 sky130_fd_pr__pfet_01v8_hvt ad=0.0956 pd=0.875 as=0.0787 ps=0.795 w=0.42 l=0.15
X105 VSS.t6 a_7350_n88# VSS_SW_b[4].t0 VSS.t5 sky130_fd_pr__nfet_01v8 ad=0.097 pd=0.975 as=0.169 ps=1.82 w=0.65 l=0.15
X106 VDD_SW_b[1].t1 a_15767_895# VDD.t74 VDD.t73 sky130_fd_pr__pfet_01v8_hvt ad=0.26 pd=2.52 as=0.154 ps=1.34 w=1 l=0.15
X107 VSS.t149 a_8409_n88# a_8319_n62# VSS.t148 sky130_fd_pr__nfet_01v8 ad=0.166 pd=1.8 as=0.116 ps=1.09 w=0.64 l=0.15
X108 a_13193_n88# a_13461_122# a_13407_220# VDD.t444 sky130_fd_pr__pfet_01v8_hvt ad=0.147 pd=1.23 as=0.113 ps=1.11 w=0.84 l=0.15
X109 VDD.t20 x30.A a_5323_2457# VDD.t19 sky130_fd_pr__pfet_01v8_hvt ad=0.135 pd=1.27 as=0.135 ps=1.27 w=1 l=0.15
X110 VSS.t624 a_939_2457# x2.X.t14 VSS.t623 sky130_fd_pr__nfet_01v8 ad=0.0878 pd=0.92 as=0.0878 ps=0.92 w=0.65 l=0.15
X111 a_678_220# a_487_n62# VDD.t675 VDD.t674 sky130_fd_pr__pfet_01v8_hvt ad=0.0882 pd=1.05 as=0.218 ps=2.2 w=0.84 l=0.15
X112 a_1415_895# x2.X.t35 VDD.t95 VDD.t94 sky130_fd_pr__pfet_01v8_hvt ad=0.132 pd=1.22 as=0.0956 ps=0.875 w=0.42 l=0.15
X113 VDD.t406 VDD.t404 a_8117_601# VDD.t405 sky130_fd_pr__pfet_01v8_hvt ad=0.154 pd=1.34 as=0.17 ps=1.81 w=0.64 l=0.15
X114 a_9644_1467# VSS.t721 a_9786_1642# VDD.t53 sky130_fd_pr__pfet_01v8_hvt ad=0.193 pd=1.34 as=0.0767 ps=0.785 w=0.42 l=0.15
X115 a_12937_304# a_12134_n88# VDD.t328 VDD.t327 sky130_fd_pr__pfet_01v8_hvt ad=0.0787 pd=0.795 as=0.0956 ps=0.875 w=0.42 l=0.15
X116 a_4862_90# a_4958_n88# VSS.t376 VSS.t375 sky130_fd_pr__nfet_01v8 ad=0.109 pd=1.36 as=0.097 ps=0.975 w=0.42 l=0.15
X117 a_12988_212# x17.X VSS.t143 VSS.t142 sky130_fd_pr__nfet_01v8 ad=0.109 pd=1.36 as=0.0567 ps=0.69 w=0.42 l=0.15
X118 VSS.t400 a_10983_895# a_11704_627# VSS.t399 sky130_fd_pr__nfet_01v8 ad=0.097 pd=0.975 as=0.109 ps=1.36 w=0.42 l=0.15
X119 VSS.t688 a_5431_601# a_5365_627# VSS.t687 sky130_fd_pr__nfet_01v8 ad=0.0882 pd=0.84 as=0.0671 ps=0.75 w=0.42 l=0.15
X120 a_15495_n62# a_15380_212# a_15072_106# VSS.t276 sky130_fd_pr__nfet_01v8 ad=0.116 pd=1.09 as=0.0486 ps=0.63 w=0.36 l=0.15
X121 VSS.t275 a_15380_212# a_15381_n88# VSS.t274 sky130_fd_pr__nfet_01v8 ad=0.0567 pd=0.69 as=0.109 ps=1.36 w=0.42 l=0.15
X122 VDD.t212 D[3].t1 a_11514_n62# VDD.t211 sky130_fd_pr__pfet_01v8_hvt ad=0.109 pd=1.36 as=0.0651 ps=0.73 w=0.42 l=0.15
X123 a_10041_993# a_9761_627# a_9949_627# VSS.t517 sky130_fd_pr__nfet_01v8 ad=0.0675 pd=0.735 as=0.066 ps=0.745 w=0.36 l=0.15
X124 VSS.t30 VDD.t758 a_6153_n62# VSS.t29 sky130_fd_pr__nfet_01v8 ad=0.0882 pd=0.84 as=0.0974 ps=0.97 w=0.42 l=0.15
X125 VDD.t726 a_9644_1467# x14.X VDD.t725 sky130_fd_pr__pfet_01v8_hvt ad=0.158 pd=1.39 as=0.26 ps=2.52 w=1 l=0.15
X126 a_9786_1642# check[2].t0 VDD.t526 VDD.t525 sky130_fd_pr__pfet_01v8_hvt ad=0.0767 pd=0.785 as=0.158 ps=1.39 w=0.42 l=0.15
X127 VDD.t625 a_14857_1289# a_14887_1642# VDD.t624 sky130_fd_pr__pfet_01v8_hvt ad=0.0693 pd=0.75 as=0.0441 ps=0.63 w=0.42 l=0.15
X128 x2.X.t31 a_939_2457# VDD.t657 VDD.t656 sky130_fd_pr__pfet_01v8_hvt ad=0.135 pd=1.27 as=0.135 ps=1.27 w=1 l=0.15
X129 a_9786_1315# check[2].t1 VSS.t388 VSS.t387 sky130_fd_pr__nfet_01v8 ad=0.0693 pd=0.75 as=0.113 ps=1.04 w=0.42 l=0.15
X130 x17.X a_13715_1642# VDD.t417 VDD.t416 sky130_fd_pr__pfet_01v8_hvt ad=0.26 pd=2.52 as=0.158 ps=1.39 w=1 l=0.15
X131 VDD.t616 a_10215_601# a_10125_993# VDD.t615 sky130_fd_pr__pfet_01v8_hvt ad=0.0798 pd=0.8 as=0.0945 ps=0.87 w=0.42 l=0.15
X132 a_7769_n62# a_7896_106# a_7350_n88# VSS.t151 sky130_fd_pr__nfet_01v8 ad=0.109 pd=1.03 as=0.0864 ps=0.91 w=0.64 l=0.15
X133 a_939_2457# x3.X VDD.t715 VDD.t714 sky130_fd_pr__pfet_01v8_hvt ad=0.135 pd=1.27 as=0.26 ps=2.52 w=1 l=0.15
X134 VDD.t262 a_5725_601# a_5675_909# VDD.t261 sky130_fd_pr__pfet_01v8_hvt ad=0.225 pd=1.38 as=0.113 ps=1.11 w=0.84 l=0.15
X135 a_5365_627# a_4811_627# a_5257_993# VSS.t162 sky130_fd_pr__nfet_01v8 ad=0.0671 pd=0.75 as=0.0675 ps=0.735 w=0.36 l=0.15
X136 VDD_SW[5].t0 a_6920_627# VSS.t164 VSS.t163 sky130_fd_pr__nfet_01v8 ad=0.169 pd=1.82 as=0.097 ps=0.975 w=0.65 l=0.15
X137 a_8140_n62# a_7350_n88# VSS.t4 VSS.t3 sky130_fd_pr__nfet_01v8 ad=0.066 pd=0.745 as=0.0703 ps=0.755 w=0.42 l=0.15
X138 a_14733_627# D[1].t0 VSS.t541 VSS.t540 sky130_fd_pr__nfet_01v8 ad=0.066 pd=0.745 as=0.109 ps=1.36 w=0.42 l=0.15
X139 VDD.t507 a_5323_2457# x9.A1.t30 VDD.t506 sky130_fd_pr__pfet_01v8_hvt ad=0.135 pd=1.27 as=0.135 ps=1.27 w=1 l=0.15
X140 a_6153_n62# a_6285_122# a_6017_n88# VSS.t211 sky130_fd_pr__nfet_01v8 ad=0.0974 pd=0.97 as=0.0864 ps=0.91 w=0.64 l=0.15
X141 VSS.t670 x3.A a_305_2457# VSS.t669 sky130_fd_pr__nfet_01v8 ad=0.0878 pd=0.92 as=0.169 ps=1.82 w=0.65 l=0.15
X142 a_2470_90# a_2566_n88# VDD.t134 VDD.t133 sky130_fd_pr__pfet_01v8_hvt ad=0.166 pd=1.8 as=0.149 ps=1.33 w=0.64 l=0.15
X143 a_8409_n88# a_7663_n62# a_8545_n62# VSS.t137 sky130_fd_pr__nfet_01v8 ad=0.0864 pd=0.91 as=0.166 ps=1.8 w=0.64 l=0.15
X144 VSS.t664 D[2].t1 a_13906_n62# VSS.t663 sky130_fd_pr__nfet_01v8 ad=0.109 pd=1.36 as=0.066 ps=0.745 w=0.42 l=0.15
X145 a_11069_122# a_10597_n88# a_11313_304# VDD.t344 sky130_fd_pr__pfet_01v8_hvt ad=0.0567 pd=0.69 as=0.0945 ps=0.87 w=0.42 l=0.15
X146 a_76_1467# x9.A1.t38 a_218_1315# VSS.t201 sky130_fd_pr__nfet_01v8 ad=0.0997 pd=0.895 as=0.0693 ps=0.75 w=0.42 l=0.15
X147 a_15799_220# a_14839_n62# VDD.t336 VDD.t335 sky130_fd_pr__pfet_01v8_hvt ad=0.113 pd=1.11 as=0.225 ps=1.38 w=0.84 l=0.15
X148 x9.A1.t12 a_5323_2457# VSS.t486 VSS.t485 sky130_fd_pr__nfet_01v8 ad=0.0878 pd=0.92 as=0.0878 ps=0.92 w=0.65 l=0.15
X149 VDD.t691 a_3333_601# a_4064_909# VDD.t690 sky130_fd_pr__pfet_01v8_hvt ad=0.218 pd=2.2 as=0.0882 ps=1.05 w=0.84 l=0.15
X150 a_10931_627# a_9761_627# a_10824_993# VSS.t516 sky130_fd_pr__nfet_01v8 ad=0.066 pd=0.745 as=0.0486 ps=0.63 w=0.36 l=0.15
X151 a_6529_304# a_6017_n88# VDD.t546 VDD.t545 sky130_fd_pr__pfet_01v8_hvt ad=0.0945 pd=0.87 as=0.0798 ps=0.8 w=0.42 l=0.15
X152 VSS.t338 a_1028_212# a_1029_n88# VSS.t337 sky130_fd_pr__nfet_01v8 ad=0.0567 pd=0.69 as=0.109 ps=1.36 w=0.42 l=0.15
X153 a_7615_1315# VSS.t104 a_7252_1467# VSS.t105 sky130_fd_pr__nfet_01v8 ad=0.0693 pd=0.75 as=0.0997 ps=0.895 w=0.42 l=0.15
X154 a_1340_993# a_27_627# a_1256_993# VDD.t431 sky130_fd_pr__pfet_01v8_hvt ad=0.0787 pd=0.795 as=0.0567 ps=0.69 w=0.42 l=0.15
X155 VDD.t505 a_5323_2457# x9.A1.t29 VDD.t504 sky130_fd_pr__pfet_01v8_hvt ad=0.135 pd=1.27 as=0.135 ps=1.27 w=1 l=0.15
X156 a_1978_1315# x9.A1.t39 a_1757_1642# VSS.t202 sky130_fd_pr__nfet_01v8 ad=0.0693 pd=0.75 as=0.0997 ps=0.895 w=0.42 l=0.15
X157 a_12036_1467# VSS.t722 a_12178_1642# VDD.t52 sky130_fd_pr__pfet_01v8_hvt ad=0.193 pd=1.34 as=0.0767 ps=0.785 w=0.42 l=0.15
X158 a_5165_627# D[5].t0 VDD.t522 VDD.t521 sky130_fd_pr__pfet_01v8_hvt ad=0.0651 pd=0.73 as=0.109 ps=1.36 w=0.42 l=0.15
X159 x2.X.t30 a_939_2457# VDD.t655 VDD.t654 sky130_fd_pr__pfet_01v8_hvt ad=0.135 pd=1.27 as=0.135 ps=1.27 w=1 l=0.15
X160 VSS.t622 a_939_2457# x2.X.t13 VSS.t621 sky130_fd_pr__nfet_01v8 ad=0.0878 pd=0.92 as=0.0878 ps=0.92 w=0.65 l=0.15
X161 VDD_SW[6].t1 a_4528_627# VDD.t585 VDD.t584 sky130_fd_pr__pfet_01v8_hvt ad=0.26 pd=2.52 as=0.149 ps=1.33 w=1 l=0.15
X162 VSS.t428 a_6199_895# a_6147_627# VSS.t427 sky130_fd_pr__nfet_01v8 ad=0.0703 pd=0.755 as=0.066 ps=0.745 w=0.42 l=0.15
X163 a_9742_n88# a_10288_106# a_10246_220# VDD.t0 sky130_fd_pr__pfet_01v8_hvt ad=0.132 pd=1.22 as=0.0882 ps=1.05 w=0.84 l=0.15
X164 a_15030_220# a_14839_n62# VDD.t334 VDD.t333 sky130_fd_pr__pfet_01v8_hvt ad=0.0882 pd=1.05 as=0.218 ps=2.2 w=0.84 l=0.15
X165 VSS.t374 a_4958_n88# VSS_SW_b[5].t0 VSS.t373 sky130_fd_pr__nfet_01v8 ad=0.097 pd=0.975 as=0.169 ps=1.82 w=0.65 l=0.15
X166 VSS.t594 reset.t1 a_29_2457# VSS.t593 sky130_fd_pr__nfet_01v8 ad=0.0754 pd=0.81 as=0.135 ps=1.56 w=0.52 l=0.15
X167 VDD.t403 VDD.t401 a_14526_n88# VDD.t402 sky130_fd_pr__pfet_01v8_hvt ad=0.0956 pd=0.875 as=0.132 ps=1.22 w=0.42 l=0.15
X168 VSS.t521 a_6017_n88# a_5927_n62# VSS.t520 sky130_fd_pr__nfet_01v8 ad=0.166 pd=1.8 as=0.116 ps=1.09 w=0.64 l=0.15
X169 a_8335_627# a_7823_601# VSS.t284 VSS.t283 sky130_fd_pr__nfet_01v8 ad=0.116 pd=1.09 as=0.166 ps=1.8 w=0.64 l=0.15
X170 a_8921_n62# a_8409_n88# VSS.t147 VSS.t146 sky130_fd_pr__nfet_01v8 ad=0.0671 pd=0.75 as=0.0882 ps=0.84 w=0.42 l=0.15
X171 x9.A1.t11 a_5323_2457# VSS.t484 VSS.t483 sky130_fd_pr__nfet_01v8 ad=0.0878 pd=0.92 as=0.0878 ps=0.92 w=0.65 l=0.15
X172 a_13715_1642# x9.A1.t40 a_13643_1642# VDD.t162 sky130_fd_pr__pfet_01v8_hvt ad=0.193 pd=1.34 as=0.0441 ps=0.63 w=0.42 l=0.15
X173 VSS.t717 a_2468_1467# x8.X VSS.t716 sky130_fd_pr__nfet_01v8 ad=0.113 pd=1.04 as=0.169 ps=1.82 w=0.65 l=0.15
X174 a_13715_1315# a_13461_1642# VSS.t185 VSS.t184 sky130_fd_pr__nfet_01v8 ad=0.0693 pd=0.75 as=0.145 ps=1.11 w=0.42 l=0.15
X175 a_8848_909# a_8432_993# a_8591_895# VDD.t107 sky130_fd_pr__pfet_01v8_hvt ad=0.0882 pd=1.05 as=0.132 ps=1.22 w=0.84 l=0.15
X176 a_10545_304# a_9742_n88# VDD.t210 VDD.t209 sky130_fd_pr__pfet_01v8_hvt ad=0.0787 pd=0.795 as=0.0956 ps=0.875 w=0.42 l=0.15
X177 a_2470_90# a_2566_n88# VSS.t179 VSS.t178 sky130_fd_pr__nfet_01v8 ad=0.109 pd=1.36 as=0.097 ps=0.975 w=0.42 l=0.15
X178 VDD.t18 x30.A a_5323_2457# VDD.t17 sky130_fd_pr__pfet_01v8_hvt ad=0.135 pd=1.27 as=0.135 ps=1.27 w=1 l=0.15
X179 VSS.t620 a_939_2457# x2.X.t12 VSS.t619 sky130_fd_pr__nfet_01v8 ad=0.0878 pd=0.92 as=0.0878 ps=0.92 w=0.65 l=0.15
X180 VDD.t454 a_941_601# a_891_909# VDD.t453 sky130_fd_pr__pfet_01v8_hvt ad=0.225 pd=1.38 as=0.113 ps=1.11 w=0.84 l=0.15
X181 a_581_627# a_27_627# a_473_993# VSS.t418 sky130_fd_pr__nfet_01v8 ad=0.0671 pd=0.75 as=0.0675 ps=0.735 w=0.36 l=0.15
X182 a_4338_n62# a_3421_n88# a_3893_122# VSS.t660 sky130_fd_pr__nfet_01v8 ad=0.066 pd=0.745 as=0.0675 ps=0.735 w=0.36 l=0.15
X183 x9.A1.t10 a_5323_2457# VSS.t482 VSS.t481 sky130_fd_pr__nfet_01v8 ad=0.0878 pd=0.92 as=0.0878 ps=0.92 w=0.65 l=0.15
X184 a_5575_627# a_5725_601# a_5431_601# VSS.t310 sky130_fd_pr__nfet_01v8 ad=0.166 pd=1.8 as=0.0864 ps=0.91 w=0.64 l=0.15
X185 a_13103_n62# a_12988_212# a_12680_106# VSS.t553 sky130_fd_pr__nfet_01v8 ad=0.116 pd=1.09 as=0.0486 ps=0.63 w=0.36 l=0.15
X186 a_3558_304# a_3421_n88# a_3112_106# VDD.t697 sky130_fd_pr__pfet_01v8_hvt ad=0.174 pd=1.41 as=0.0567 ps=0.69 w=0.42 l=0.15
X187 VDD.t149 a_10596_212# a_10597_n88# VDD.t148 sky130_fd_pr__pfet_01v8_hvt ad=0.0864 pd=0.91 as=0.166 ps=1.8 w=0.64 l=0.15
X188 a_15072_106# a_15381_n88# a_15316_n62# VSS.t277 sky130_fd_pr__nfet_01v8 ad=0.0486 pd=0.63 as=0.066 ps=0.745 w=0.36 l=0.15
X189 x3.X a_305_2457# VDD.t744 VDD.t743 sky130_fd_pr__pfet_01v8_hvt ad=0.135 pd=1.27 as=0.135 ps=1.27 w=1 l=0.15
X190 a_3648_993# a_2585_627# a_3504_909# VDD.t693 sky130_fd_pr__pfet_01v8_hvt ad=0.0567 pd=0.69 as=0.174 ps=1.41 w=0.42 l=0.15
X191 a_8677_122# a_8204_212# a_8921_n62# VSS.t183 sky130_fd_pr__nfet_01v8 ad=0.0675 pd=0.735 as=0.0671 ps=0.75 w=0.36 l=0.15
X192 a_5504_106# a_5812_212# a_5761_304# VDD.t608 sky130_fd_pr__pfet_01v8_hvt ad=0.0567 pd=0.69 as=0.0787 ps=0.795 w=0.42 l=0.15
X193 VSS.t430 a_12036_1467# x16.X VSS.t429 sky130_fd_pr__nfet_01v8 ad=0.113 pd=1.04 as=0.169 ps=1.82 w=0.65 l=0.15
X194 a_5377_n62# a_5504_106# a_4958_n88# VSS.t661 sky130_fd_pr__nfet_01v8 ad=0.109 pd=1.03 as=0.0864 ps=0.91 w=0.64 l=0.15
X195 a_12341_627# D[2].t2 VSS.t666 VSS.t665 sky130_fd_pr__nfet_01v8 ad=0.066 pd=0.745 as=0.109 ps=1.36 w=0.42 l=0.15
X196 a_939_2457# x3.X VDD.t713 VDD.t712 sky130_fd_pr__pfet_01v8_hvt ad=0.135 pd=1.27 as=0.135 ps=1.27 w=1 l=0.15
X197 VDD.t689 a_3333_601# a_3283_909# VDD.t688 sky130_fd_pr__pfet_01v8_hvt ad=0.225 pd=1.38 as=0.113 ps=1.11 w=0.84 l=0.15
X198 a_7350_n88# a_7663_n62# a_7769_n62# VSS.t136 sky130_fd_pr__nfet_01v8 ad=0.0864 pd=0.91 as=0.166 ps=1.8 w=0.64 l=0.15
X199 a_5675_909# a_5257_993# a_5431_601# VDD.t87 sky130_fd_pr__pfet_01v8_hvt ad=0.113 pd=1.11 as=0.147 ps=1.23 w=0.84 l=0.15
X200 a_7967_627# x2.X.t36 VSS.t145 VSS.t144 sky130_fd_pr__nfet_01v8 ad=0.0974 pd=0.97 as=0.0882 ps=0.84 w=0.42 l=0.15
X201 VDD.t503 a_5323_2457# x9.A1.t28 VDD.t502 sky130_fd_pr__pfet_01v8_hvt ad=0.135 pd=1.27 as=0.135 ps=1.27 w=1 l=0.15
X202 VDD.t567 a_2897_1289# a_2927_1642# VDD.t566 sky130_fd_pr__pfet_01v8_hvt ad=0.0693 pd=0.75 as=0.0441 ps=0.63 w=0.42 l=0.15
X203 a_10801_n88# a_11069_122# a_11015_220# VDD.t352 sky130_fd_pr__pfet_01v8_hvt ad=0.147 pd=1.23 as=0.113 ps=1.11 w=0.84 l=0.15
X204 VDD.t501 a_5323_2457# x9.A1.t27 VDD.t500 sky130_fd_pr__pfet_01v8_hvt ad=0.135 pd=1.27 as=0.135 ps=1.27 w=1 l=0.15
X205 a_9761_627# a_9595_627# VDD.t175 VDD.t174 sky130_fd_pr__pfet_01v8_hvt ad=0.166 pd=1.8 as=0.0864 ps=0.91 w=0.64 l=0.15
X206 a_13407_220# a_12447_n62# VDD.t472 VDD.t471 sky130_fd_pr__pfet_01v8_hvt ad=0.113 pd=1.11 as=0.225 ps=1.38 w=0.84 l=0.15
X207 a_381_627# D[7].t1 VDD.t728 VDD.t727 sky130_fd_pr__pfet_01v8_hvt ad=0.0651 pd=0.73 as=0.109 ps=1.36 w=0.42 l=0.15
X208 VSS.t318 a_647_601# a_581_627# VSS.t317 sky130_fd_pr__nfet_01v8 ad=0.0882 pd=0.84 as=0.0671 ps=0.75 w=0.42 l=0.15
X209 VSS.t498 a_8591_895# a_9312_627# VSS.t497 sky130_fd_pr__nfet_01v8 ad=0.097 pd=0.975 as=0.109 ps=1.36 w=0.42 l=0.15
X210 VDD.t338 check[2].t2 a_11539_1642# VDD.t337 sky130_fd_pr__pfet_01v8_hvt ad=0.158 pd=1.39 as=0.0767 ps=0.785 w=0.42 l=0.15
X211 a_14430_90# a_14526_n88# VDD.t68 VDD.t67 sky130_fd_pr__pfet_01v8_hvt ad=0.166 pd=1.8 as=0.149 ps=1.33 w=0.64 l=0.15
X212 a_8204_212# x13.X VDD.t38 VDD.t37 sky130_fd_pr__pfet_01v8_hvt ad=0.166 pd=1.8 as=0.0864 ps=0.91 w=0.64 l=0.15
X213 VDD.t40 D[4].t1 a_9122_n62# VDD.t39 sky130_fd_pr__pfet_01v8_hvt ad=0.109 pd=1.36 as=0.0651 ps=0.73 w=0.42 l=0.15
X214 VSS.t668 check[2].t3 a_11546_1315# VSS.t667 sky130_fd_pr__nfet_01v8 ad=0.113 pd=1.04 as=0.0693 ps=0.75 w=0.42 l=0.15
X215 VSS.t32 VDD.t759 a_14945_n62# VSS.t31 sky130_fd_pr__nfet_01v8 ad=0.0703 pd=0.755 as=0.109 ps=1.03 w=0.42 l=0.15
X216 VSS.t133 a_174_n88# VSS_SW_b[7].t0 VSS.t132 sky130_fd_pr__nfet_01v8 ad=0.097 pd=0.975 as=0.169 ps=1.82 w=0.65 l=0.15
X217 VSS.t437 a_3039_601# a_2973_627# VSS.t436 sky130_fd_pr__nfet_01v8 ad=0.0882 pd=0.84 as=0.0671 ps=0.75 w=0.42 l=0.15
X218 x13.X a_8933_1642# VSS.t384 VSS.t383 sky130_fd_pr__nfet_01v8 ad=0.169 pd=1.82 as=0.113 ps=1.04 w=0.65 l=0.15
X219 VSS.t552 a_12988_212# a_12989_n88# VSS.t551 sky130_fd_pr__nfet_01v8 ad=0.0567 pd=0.69 as=0.109 ps=1.36 w=0.42 l=0.15
X220 VDD.t499 a_5323_2457# x9.A1.t26 VDD.t498 sky130_fd_pr__pfet_01v8_hvt ad=0.135 pd=1.27 as=0.135 ps=1.27 w=1 l=0.15
X221 VSS.t707 a_305_2457# x3.X VSS.t706 sky130_fd_pr__nfet_01v8 ad=0.169 pd=1.82 as=0.0878 ps=0.92 w=0.65 l=0.15
X222 VDD_SW[7].t1 a_2136_627# VDD.t460 VDD.t459 sky130_fd_pr__pfet_01v8_hvt ad=0.26 pd=2.52 as=0.149 ps=1.33 w=1 l=0.15
X223 VDD_SW_b[5].t0 a_6199_895# VSS.t426 VSS.t425 sky130_fd_pr__nfet_01v8 ad=0.169 pd=1.82 as=0.097 ps=0.975 w=0.65 l=0.15
X224 VDD.t400 VDD.t398 a_4958_n88# VDD.t399 sky130_fd_pr__pfet_01v8_hvt ad=0.0956 pd=0.875 as=0.132 ps=1.22 w=0.42 l=0.15
X225 a_8677_122# a_8205_n88# a_8921_304# VDD.t551 sky130_fd_pr__pfet_01v8_hvt ad=0.0567 pd=0.69 as=0.0945 ps=0.87 w=0.42 l=0.15
X226 VSS.t618 a_939_2457# x2.X.t11 VSS.t617 sky130_fd_pr__nfet_01v8 ad=0.0878 pd=0.92 as=0.0878 ps=0.92 w=0.65 l=0.15
X227 a_16037_1642# a_15855_1642# VDD.t677 VDD.t676 sky130_fd_pr__pfet_01v8_hvt ad=0.0441 pd=0.63 as=0.0693 ps=0.75 w=0.42 l=0.15
X228 a_14857_1289# check[0].t2 VDD.t695 VDD.t694 sky130_fd_pr__pfet_01v8_hvt ad=0.118 pd=1.4 as=0.0693 ps=0.75 w=0.42 l=0.15
X229 VDD_SW[1].t1 a_16488_627# VDD.t681 VDD.t680 sky130_fd_pr__pfet_01v8_hvt ad=0.26 pd=2.52 as=0.149 ps=1.33 w=1 l=0.15
X230 x30.A a_4689_2457# VDD.t276 VDD.t275 sky130_fd_pr__pfet_01v8_hvt ad=0.135 pd=1.27 as=0.135 ps=1.27 w=1 l=0.15
X231 a_791_627# a_941_601# a_647_601# VSS.t439 sky130_fd_pr__nfet_01v8 ad=0.166 pd=1.8 as=0.0864 ps=0.91 w=0.64 l=0.15
X232 x2.X.t29 a_939_2457# VDD.t653 VDD.t652 sky130_fd_pr__pfet_01v8_hvt ad=0.135 pd=1.27 as=0.135 ps=1.27 w=1 l=0.15
X233 a_14857_1289# check[0].t3 VSS.t406 VSS.t405 sky130_fd_pr__nfet_01v8 ad=0.109 pd=1.36 as=0.145 ps=1.11 w=0.42 l=0.15
X234 a_4149_1642# VSS.t102 a_4149_1315# VSS.t103 sky130_fd_pr__nfet_01v8 ad=0.0997 pd=0.895 as=0.0693 ps=0.75 w=0.42 l=0.15
X235 x20.X a_16109_1642# VDD.t282 VDD.t281 sky130_fd_pr__pfet_01v8_hvt ad=0.26 pd=2.52 as=0.158 ps=1.39 w=1 l=0.15
X236 a_7823_601# x2.X.t37 VDD.t97 VDD.t96 sky130_fd_pr__pfet_01v8_hvt ad=0.147 pd=1.23 as=0.0798 ps=0.8 w=0.42 l=0.15
X237 a_9761_627# a_9595_627# VSS.t216 VSS.t215 sky130_fd_pr__nfet_01v8 ad=0.109 pd=1.36 as=0.0567 ps=0.69 w=0.42 l=0.15
X238 a_6456_909# a_6040_993# a_6199_895# VDD.t351 sky130_fd_pr__pfet_01v8_hvt ad=0.0882 pd=1.05 as=0.132 ps=1.22 w=0.84 l=0.15
X239 VSS.t258 D[3].t2 a_11514_n62# VSS.t257 sky130_fd_pr__nfet_01v8 ad=0.109 pd=1.36 as=0.066 ps=0.745 w=0.42 l=0.15
X240 x9.A1.t9 a_5323_2457# VSS.t480 VSS.t479 sky130_fd_pr__nfet_01v8 ad=0.0878 pd=0.92 as=0.0878 ps=0.92 w=0.65 l=0.15
X241 a_8731_627# x2.X.t38 VSS.t303 VSS.t302 sky130_fd_pr__nfet_01v8 ad=0.109 pd=1.03 as=0.0703 ps=0.755 w=0.42 l=0.15
X242 a_891_909# a_473_993# a_647_601# VDD.t562 sky130_fd_pr__pfet_01v8_hvt ad=0.113 pd=1.11 as=0.147 ps=1.23 w=0.84 l=0.15