* NGSPICE file created from hgu_sarlogic_sw_ctrl_flat.ext - technology: sky130A

.subckt hgu_sarlogic_sw_ctrl_RC VDD VSS VDD_SW[1] VDD_SW[2] VDD_SW[3] VDD_SW[4] VDD_SW[5] VDD_SW[6] VDD_SW[7]
+ VDD_SW_b[1] VDD_SW_b[2] VDD_SW_b[3] VDD_SW_b[4] VDD_SW_b[5] VDD_SW_b[6] VDD_SW_b[7]
+ D[1] D[2] D[3] D[4] D[5] D[6] D[7] VSS_SW[1] VSS_SW[2] VSS_SW[3] VSS_SW[4] VSS_SW[5] 
+ VSS_SW[6] VSS_SW[7] check[0] check[1] check[2] check[3] check[4] check[5] check[6] VSS_SW_b[1]
+ VSS_SW_b[2] VSS_SW_b[3] VSS_SW_b[4] VSS_SW_b[5] VSS_SW_b[6] VSS_SW_b[7] ready reset 
X0 a_3420_212# x9.X VSS.t569 VSS.t568 sky130_fd_pr__nfet_01v8 ad=0.109 pd=1.36 as=0.0567 ps=0.69 w=0.42 l=0.15
X1 VSS.t82 VDD.t753 a_10509_601# VSS.t81 sky130_fd_pr__nfet_01v8 ad=0.097 pd=0.975 as=0.109 ps=1.36 w=0.42 l=0.15
X2 a_11539_1642# VSS.t718 a_11325_1642# VDD.t314 sky130_fd_pr__pfet_01v8_hvt ad=0.0767 pd=0.785 as=0.193 ps=1.34 w=0.42 l=0.15
X3 VSS.t84 VDD.t754 a_7769_n62# VSS.t83 sky130_fd_pr__nfet_01v8 ad=0.0703 pd=0.755 as=0.109 ps=1.03 w=0.42 l=0.15
X4 VDD.t29 a_15293_601# a_16024_909# VDD.t28 sky130_fd_pr__pfet_01v8_hvt ad=0.218 pd=2.2 as=0.0882 ps=1.05 w=0.84 l=0.15
X5 VSS.t218 a_5812_212# a_5813_n88# VSS.t217 sky130_fd_pr__nfet_01v8 ad=0.0567 pd=0.69 as=0.109 ps=1.36 w=0.42 l=0.15
X6 a_5927_n62# a_5812_212# a_5504_106# VSS.t216 sky130_fd_pr__nfet_01v8 ad=0.116 pd=1.09 as=0.0486 ps=0.63 w=0.36 l=0.15
X7 a_5323_2457# x30.A VSS.t255 VSS.t254 sky130_fd_pr__nfet_01v8 ad=0.0878 pd=0.92 as=0.0878 ps=0.92 w=0.65 l=0.15
X8 VDD.t547 x3.X a_939_2457# VDD.t546 sky130_fd_pr__pfet_01v8_hvt ad=0.135 pd=1.27 as=0.135 ps=1.27 w=1 l=0.15
X9 a_5271_n62# x2.X.t32 VSS.t366 VSS.t365 sky130_fd_pr__nfet_01v8 ad=0.109 pd=1.36 as=0.097 ps=0.975 w=0.42 l=0.15
X10 a_13300_993# a_11987_627# a_13216_993# VDD.t669 sky130_fd_pr__pfet_01v8_hvt ad=0.0787 pd=0.795 as=0.0567 ps=0.69 w=0.42 l=0.15
X11 VDD.t446 VDD.t444 a_10509_601# VDD.t445 sky130_fd_pr__pfet_01v8_hvt ad=0.154 pd=1.34 as=0.17 ps=1.81 w=0.64 l=0.15
X12 VDD.t286 x16.X a_11987_627# VDD.t285 sky130_fd_pr__pfet_01v8_hvt ad=0.0864 pd=0.91 as=0.166 ps=1.8 w=0.64 l=0.15
X13 a_14887_1642# x9.A1.t32 a_14428_1467# VDD.t250 sky130_fd_pr__pfet_01v8_hvt ad=0.0441 pd=0.63 as=0.193 ps=1.34 w=0.42 l=0.15
X14 a_7896_106# a_8205_n88# a_8140_n62# VSS.t613 sky130_fd_pr__nfet_01v8 ad=0.0486 pd=0.63 as=0.066 ps=0.745 w=0.36 l=0.15
X15 VSS.t713 a_9742_n88# VSS_SW_b[3].t0 VSS.t712 sky130_fd_pr__nfet_01v8 ad=0.097 pd=0.975 as=0.169 ps=1.82 w=0.65 l=0.15
X16 VSS.t352 a_14857_1289# a_14791_1315# VSS.t351 sky130_fd_pr__nfet_01v8 ad=0.145 pd=1.11 as=0.0693 ps=0.75 w=0.42 l=0.15
X17 VDD.t734 a_1415_895# a_2136_627# VDD.t733 sky130_fd_pr__pfet_01v8_hvt ad=0.149 pd=1.33 as=0.166 ps=1.8 w=0.64 l=0.15
X18 VDD.t630 a_8591_895# a_8516_993# VDD.t629 sky130_fd_pr__pfet_01v8_hvt ad=0.0956 pd=0.875 as=0.0787 ps=0.795 w=0.42 l=0.15
X19 x7.X a_1757_1642# VSS.t44 VSS.t43 sky130_fd_pr__nfet_01v8 ad=0.169 pd=1.82 as=0.113 ps=1.04 w=0.65 l=0.15
X20 a_1501_122# a_1029_n88# a_1745_304# VDD.t288 sky130_fd_pr__pfet_01v8_hvt ad=0.0567 pd=0.69 as=0.0945 ps=0.87 w=0.42 l=0.15
X21 a_8933_1642# x9.A1.t33 a_8861_1642# VDD.t251 sky130_fd_pr__pfet_01v8_hvt ad=0.193 pd=1.34 as=0.0441 ps=0.63 w=0.42 l=0.15
X22 a_8933_1315# a_8679_1642# VSS.t541 VSS.t540 sky130_fd_pr__nfet_01v8 ad=0.0693 pd=0.75 as=0.145 ps=1.11 w=0.42 l=0.15
X23 a_9154_1315# x9.A1.t34 a_8933_1642# VSS.t15 sky130_fd_pr__nfet_01v8 ad=0.0693 pd=0.75 as=0.0997 ps=0.895 w=0.42 l=0.15
X24 VSS.t52 D[6].t0 a_4338_n62# VSS.t51 sky130_fd_pr__nfet_01v8 ad=0.109 pd=1.36 as=0.066 ps=0.745 w=0.42 l=0.15
X25 VDD.t614 check[1].t0 a_13461_1642# VDD.t613 sky130_fd_pr__pfet_01v8_hvt ad=0.0693 pd=0.75 as=0.118 ps=1.4 w=0.42 l=0.15
X26 a_10983_895# a_10824_993# a_11123_627# VSS.t579 sky130_fd_pr__nfet_01v8 ad=0.0864 pd=0.91 as=0.109 ps=1.03 w=0.64 l=0.15
X27 VSS.t583 check[1].t1 a_13461_1642# VSS.t582 sky130_fd_pr__nfet_01v8 ad=0.145 pd=1.11 as=0.109 ps=1.36 w=0.42 l=0.15
X28 VDD.t168 D[2].t0 a_13906_n62# VDD.t167 sky130_fd_pr__pfet_01v8_hvt ad=0.109 pd=1.36 as=0.0651 ps=0.73 w=0.42 l=0.15
X29 a_16298_n62# a_15381_n88# a_15853_122# VSS.t282 sky130_fd_pr__nfet_01v8 ad=0.066 pd=0.745 as=0.0675 ps=0.735 w=0.36 l=0.15
X30 a_15518_304# a_15381_n88# a_15072_106# VDD.t300 sky130_fd_pr__pfet_01v8_hvt ad=0.174 pd=1.41 as=0.0567 ps=0.69 w=0.42 l=0.15
X31 VDD_SW_b[6].t1 a_3807_895# VDD.t520 VDD.t519 sky130_fd_pr__pfet_01v8_hvt ad=0.26 pd=2.52 as=0.154 ps=1.34 w=1 l=0.15
X32 a_8731_627# a_8117_601# a_8591_895# VSS.t80 sky130_fd_pr__nfet_01v8 ad=0.166 pd=1.8 as=0.0864 ps=0.91 w=0.64 l=0.15
X33 a_10041_993# a_9595_627# a_9949_627# VDD.t160 sky130_fd_pr__pfet_01v8_hvt ad=0.0567 pd=0.69 as=0.0651 ps=0.73 w=0.42 l=0.15
X34 a_5462_220# a_5271_n62# VDD.t502 VDD.t501 sky130_fd_pr__pfet_01v8_hvt ad=0.0882 pd=1.05 as=0.218 ps=2.2 w=0.84 l=0.15
X35 VSS.t268 x16.X a_11987_627# VSS.t267 sky130_fd_pr__nfet_01v8 ad=0.0567 pd=0.69 as=0.109 ps=1.36 w=0.42 l=0.15
X36 x9.A1.t15 a_5323_2457# VSS.t134 VSS.t133 sky130_fd_pr__nfet_01v8 ad=0.0878 pd=0.92 as=0.0878 ps=0.92 w=0.65 l=0.15
X37 a_15608_993# a_14545_627# a_15464_909# VDD.t339 sky130_fd_pr__pfet_01v8_hvt ad=0.0567 pd=0.69 as=0.174 ps=1.41 w=0.42 l=0.15
X38 a_9949_627# D[3].t0 VDD.t32 VDD.t31 sky130_fd_pr__pfet_01v8_hvt ad=0.0651 pd=0.73 as=0.109 ps=1.36 w=0.42 l=0.15
X39 VDD.t555 a_76_1467# x6.X VDD.t554 sky130_fd_pr__pfet_01v8_hvt ad=0.158 pd=1.39 as=0.26 ps=2.52 w=1 l=0.15
X40 VDD.t27 a_15293_601# a_15243_909# VDD.t26 sky130_fd_pr__pfet_01v8_hvt ad=0.225 pd=1.38 as=0.113 ps=1.11 w=0.84 l=0.15
X41 a_8545_n62# a_8677_122# a_8409_n88# VSS.t227 sky130_fd_pr__nfet_01v8 ad=0.0974 pd=0.97 as=0.0864 ps=0.91 w=0.64 l=0.15
X42 a_11325_1642# x9.A1.t35 a_11253_1642# VDD.t16 sky130_fd_pr__pfet_01v8_hvt ad=0.193 pd=1.34 as=0.0441 ps=0.63 w=0.42 l=0.15
X43 VDD.t492 a_12134_n88# VSS_SW_b[2].t1 VDD.t491 sky130_fd_pr__pfet_01v8_hvt ad=0.154 pd=1.34 as=0.26 ps=2.52 w=1 l=0.15
X44 a_15585_n88# a_15853_122# a_15799_220# VDD.t282 sky130_fd_pr__pfet_01v8_hvt ad=0.147 pd=1.23 as=0.113 ps=1.11 w=0.84 l=0.15
X45 a_11325_1315# a_11071_1642# VSS.t7 VSS.t6 sky130_fd_pr__nfet_01v8 ad=0.0693 pd=0.75 as=0.145 ps=1.11 w=0.42 l=0.15
X46 VDD.t104 a_13193_n88# a_13126_304# VDD.t103 sky130_fd_pr__pfet_01v8_hvt ad=0.225 pd=1.38 as=0.174 ps=1.41 w=0.84 l=0.15
X47 VDD.t273 x30.A a_5323_2457# VDD.t272 sky130_fd_pr__pfet_01v8_hvt ad=0.135 pd=1.27 as=0.135 ps=1.27 w=1 l=0.15
X48 a_10532_n62# a_9742_n88# VSS.t711 VSS.t710 sky130_fd_pr__nfet_01v8 ad=0.066 pd=0.745 as=0.0703 ps=0.755 w=0.42 l=0.15
X49 a_1028_212# x7.X VSS.t56 VSS.t55 sky130_fd_pr__nfet_01v8 ad=0.109 pd=1.36 as=0.0567 ps=0.69 w=0.42 l=0.15
X50 a_5319_1642# x9.A1.t36 a_4860_1467# VDD.t17 sky130_fd_pr__pfet_01v8_hvt ad=0.0441 pd=0.63 as=0.193 ps=1.34 w=0.42 l=0.15
X51 a_10801_n88# a_10055_n62# a_10937_n62# VSS.t445 sky130_fd_pr__nfet_01v8 ad=0.0864 pd=0.91 as=0.166 ps=1.8 w=0.64 l=0.15
X52 a_8921_304# a_8409_n88# VDD.t658 VDD.t657 sky130_fd_pr__pfet_01v8_hvt ad=0.0945 pd=0.87 as=0.0798 ps=0.8 w=0.42 l=0.15
X53 VSS.t467 a_3420_212# a_3421_n88# VSS.t466 sky130_fd_pr__nfet_01v8 ad=0.0567 pd=0.69 as=0.109 ps=1.36 w=0.42 l=0.15
X54 VSS.t469 a_5289_1289# a_5223_1315# VSS.t468 sky130_fd_pr__nfet_01v8 ad=0.145 pd=1.11 as=0.0693 ps=0.75 w=0.42 l=0.15
X55 a_3807_895# x2.X.t33 VDD.t364 VDD.t363 sky130_fd_pr__pfet_01v8_hvt ad=0.132 pd=1.22 as=0.0956 ps=0.875 w=0.42 l=0.15
X56 a_15380_212# x20.X VSS.t397 VSS.t396 sky130_fd_pr__nfet_01v8 ad=0.109 pd=1.36 as=0.0567 ps=0.69 w=0.42 l=0.15
X57 VSS.t152 a_7823_601# a_7757_627# VSS.t151 sky130_fd_pr__nfet_01v8 ad=0.0882 pd=0.84 as=0.0671 ps=0.75 w=0.42 l=0.15
X58 a_2773_627# D[6].t1 VSS.t54 VSS.t53 sky130_fd_pr__nfet_01v8 ad=0.066 pd=0.745 as=0.109 ps=1.36 w=0.42 l=0.15
X59 a_12433_993# a_12153_627# a_12341_627# VSS.t30 sky130_fd_pr__nfet_01v8 ad=0.0675 pd=0.735 as=0.066 ps=0.745 w=0.36 l=0.15
X60 VDD.t379 check[4].t0 a_6753_1642# VDD.t378 sky130_fd_pr__pfet_01v8_hvt ad=0.158 pd=1.39 as=0.0767 ps=0.785 w=0.42 l=0.15
X61 VSS.t529 VDD.t755 a_8545_n62# VSS.t528 sky130_fd_pr__nfet_01v8 ad=0.0882 pd=0.84 as=0.0974 ps=0.97 w=0.42 l=0.15
X62 a_12134_n88# a_12680_106# a_12638_220# VDD.t721 sky130_fd_pr__pfet_01v8_hvt ad=0.132 pd=1.22 as=0.0882 ps=1.05 w=0.84 l=0.15
X63 VSS.t384 check[4].t1 a_6760_1315# VSS.t383 sky130_fd_pr__nfet_01v8 ad=0.113 pd=1.04 as=0.0693 ps=0.75 w=0.42 l=0.15
X64 VSS.t38 a_305_2457# x3.X VSS.t37 sky130_fd_pr__nfet_01v8 ad=0.0878 pd=0.92 as=0.0878 ps=0.92 w=0.65 l=0.15
X65 VDD.t3 a_12607_601# a_12517_993# VDD.t2 sky130_fd_pr__pfet_01v8_hvt ad=0.0798 pd=0.8 as=0.0945 ps=0.87 w=0.42 l=0.15
X66 a_6753_1642# VSS.t719 a_6539_1642# VDD.t313 sky130_fd_pr__pfet_01v8_hvt ad=0.0767 pd=0.785 as=0.193 ps=1.34 w=0.42 l=0.15
X67 a_7757_627# a_7203_627# a_7649_993# VSS.t243 sky130_fd_pr__nfet_01v8 ad=0.0671 pd=0.75 as=0.0675 ps=0.735 w=0.36 l=0.15
X68 VDD_SW[4].t0 a_9312_627# VSS.t210 VSS.t209 sky130_fd_pr__nfet_01v8 ad=0.169 pd=1.82 as=0.097 ps=0.975 w=0.65 l=0.15
X69 VSS.t531 VDD.t756 a_8117_601# VSS.t530 sky130_fd_pr__nfet_01v8 ad=0.097 pd=0.975 as=0.109 ps=1.36 w=0.42 l=0.15
X70 VSS.t492 x3.X a_939_2457# VSS.t491 sky130_fd_pr__nfet_01v8 ad=0.0878 pd=0.92 as=0.0878 ps=0.92 w=0.65 l=0.15
X71 a_2927_1642# x9.A1.t37 a_2468_1467# VDD.t571 sky130_fd_pr__pfet_01v8_hvt ad=0.0441 pd=0.63 as=0.193 ps=1.34 w=0.42 l=0.15
X72 a_4862_90# a_4958_n88# VDD.t624 VDD.t623 sky130_fd_pr__pfet_01v8_hvt ad=0.166 pd=1.8 as=0.149 ps=1.33 w=0.64 l=0.15
X73 VDD.t184 a_13375_895# a_14096_627# VDD.t183 sky130_fd_pr__pfet_01v8_hvt ad=0.149 pd=1.33 as=0.166 ps=1.8 w=0.64 l=0.15
X74 VSS.t317 D[7].t0 a_1946_n62# VSS.t316 sky130_fd_pr__nfet_01v8 ad=0.109 pd=1.36 as=0.066 ps=0.745 w=0.42 l=0.15
X75 a_487_n62# x2.X.t34 VSS.t504 VSS.t503 sky130_fd_pr__nfet_01v8 ad=0.109 pd=1.36 as=0.097 ps=0.975 w=0.42 l=0.15
X76 x30.A a_4689_2457# VDD.t642 VDD.t641 sky130_fd_pr__pfet_01v8_hvt ad=0.135 pd=1.27 as=0.135 ps=1.27 w=1 l=0.15
X77 VDD.t136 a_5323_2457# x9.A1.t31 VDD.t135 sky130_fd_pr__pfet_01v8_hvt ad=0.135 pd=1.27 as=0.135 ps=1.27 w=1 l=0.15
X78 x9.A1.t14 a_5323_2457# VSS.t132 VSS.t131 sky130_fd_pr__nfet_01v8 ad=0.0878 pd=0.92 as=0.0878 ps=0.92 w=0.65 l=0.15
X79 VSS.t229 a_2897_1289# a_2831_1315# VSS.t228 sky130_fd_pr__nfet_01v8 ad=0.145 pd=1.11 as=0.0693 ps=0.75 w=0.42 l=0.15
X80 VDD.t68 check[3].t0 a_8679_1642# VDD.t67 sky130_fd_pr__pfet_01v8_hvt ad=0.0693 pd=0.75 as=0.118 ps=1.4 w=0.42 l=0.15
X81 VDD.t443 VDD.t441 a_1233_n88# VDD.t442 sky130_fd_pr__pfet_01v8_hvt ad=0.0798 pd=0.8 as=0.147 ps=1.23 w=0.42 l=0.15
X82 VDD.t484 a_7681_1289# a_7711_1642# VDD.t483 sky130_fd_pr__pfet_01v8_hvt ad=0.0693 pd=0.75 as=0.0441 ps=0.63 w=0.42 l=0.15
X83 VSS.t62 check[3].t1 a_8679_1642# VSS.t61 sky130_fd_pr__nfet_01v8 ad=0.145 pd=1.11 as=0.109 ps=1.36 w=0.42 l=0.15
X84 VDD.t381 check[0].t0 a_16323_1642# VDD.t380 sky130_fd_pr__pfet_01v8_hvt ad=0.158 pd=1.39 as=0.0767 ps=0.785 w=0.42 l=0.15
X85 VSS.t533 VDD.t757 a_941_601# VSS.t532 sky130_fd_pr__nfet_01v8 ad=0.097 pd=0.975 as=0.109 ps=1.36 w=0.42 l=0.15
X86 VSS.t386 check[0].t1 a_16330_1315# VSS.t385 sky130_fd_pr__nfet_01v8 ad=0.113 pd=1.04 as=0.0693 ps=0.75 w=0.42 l=0.15
X87 a_6730_n62# a_5813_n88# a_6285_122# VSS.t199 sky130_fd_pr__nfet_01v8 ad=0.066 pd=0.745 as=0.0675 ps=0.735 w=0.36 l=0.15
X88 a_10596_212# x15.X VDD.t275 VDD.t274 sky130_fd_pr__pfet_01v8_hvt ad=0.166 pd=1.8 as=0.0864 ps=0.91 w=0.64 l=0.15
X89 a_5950_304# a_5813_n88# a_5504_106# VDD.t213 sky130_fd_pr__pfet_01v8_hvt ad=0.174 pd=1.41 as=0.0567 ps=0.69 w=0.42 l=0.15
X90 a_15143_627# a_15293_601# a_14999_601# VSS.t23 sky130_fd_pr__nfet_01v8 ad=0.166 pd=1.8 as=0.0864 ps=0.91 w=0.64 l=0.15
X91 a_3732_993# a_2419_627# a_3648_993# VDD.t236 sky130_fd_pr__pfet_01v8_hvt ad=0.0787 pd=0.795 as=0.0567 ps=0.69 w=0.42 l=0.15
X92 a_13126_304# a_12989_n88# a_12680_106# VDD.t292 sky130_fd_pr__pfet_01v8_hvt ad=0.174 pd=1.41 as=0.0567 ps=0.69 w=0.42 l=0.15
X93 VSS.t676 a_939_2457# x2.X.t15 VSS.t675 sky130_fd_pr__nfet_01v8 ad=0.0878 pd=0.92 as=0.0878 ps=0.92 w=0.65 l=0.15
X94 a_16323_1642# VSS.t720 a_16109_1642# VDD.t312 sky130_fd_pr__pfet_01v8_hvt ad=0.0767 pd=0.785 as=0.193 ps=1.34 w=0.42 l=0.15
X95 VDD.t440 VDD.t438 a_941_601# VDD.t439 sky130_fd_pr__pfet_01v8_hvt ad=0.154 pd=1.34 as=0.17 ps=1.81 w=0.64 l=0.15
X96 a_3070_220# a_2879_n62# VDD.t718 VDD.t717 sky130_fd_pr__pfet_01v8_hvt ad=0.0882 pd=1.05 as=0.218 ps=2.2 w=0.84 l=0.15
X97 VDD.t80 reset.t0 a_29_2457# VDD.t79 sky130_fd_pr__pfet_01v8_hvt ad=0.115 pd=1.08 as=0.205 ps=2.1 w=0.79 l=0.15
X98 a_13216_993# a_12153_627# a_13072_909# VDD.t36 sky130_fd_pr__pfet_01v8_hvt ad=0.0567 pd=0.69 as=0.174 ps=1.41 w=0.42 l=0.15
X99 a_7557_627# D[4].t0 VDD.t331 VDD.t330 sky130_fd_pr__pfet_01v8_hvt ad=0.0651 pd=0.73 as=0.109 ps=1.36 w=0.42 l=0.15
X100 VSS.t637 a_14428_1467# x18.X VSS.t636 sky130_fd_pr__nfet_01v8 ad=0.113 pd=1.04 as=0.169 ps=1.82 w=0.65 l=0.15
X101 a_14945_n62# a_15072_106# a_14526_n88# VSS.t433 sky130_fd_pr__nfet_01v8 ad=0.109 pd=1.03 as=0.0864 ps=0.91 w=0.64 l=0.15
X102 x9.A1.t13 a_5323_2457# VSS.t130 VSS.t129 sky130_fd_pr__nfet_01v8 ad=0.0878 pd=0.92 as=0.0878 ps=0.92 w=0.65 l=0.15
X103 VSS.t599 a_8591_895# a_8539_627# VSS.t598 sky130_fd_pr__nfet_01v8 ad=0.0703 pd=0.755 as=0.066 ps=0.745 w=0.42 l=0.15
X104 VDD.t298 a_6199_895# a_6124_993# VDD.t297 sky130_fd_pr__pfet_01v8_hvt ad=0.0956 pd=0.875 as=0.0787 ps=0.795 w=0.42 l=0.15
X105 VSS.t382 a_7350_n88# VSS_SW_b[4].t0 VSS.t381 sky130_fd_pr__nfet_01v8 ad=0.097 pd=0.975 as=0.169 ps=1.82 w=0.65 l=0.15
X106 VDD_SW_b[1].t1 a_15767_895# VDD.t56 VDD.t55 sky130_fd_pr__pfet_01v8_hvt ad=0.26 pd=2.52 as=0.154 ps=1.34 w=1 l=0.15
X107 VSS.t631 a_8409_n88# a_8319_n62# VSS.t630 sky130_fd_pr__nfet_01v8 ad=0.166 pd=1.8 as=0.116 ps=1.09 w=0.64 l=0.15
X108 a_13193_n88# a_13461_122# a_13407_220# VDD.t609 sky130_fd_pr__pfet_01v8_hvt ad=0.147 pd=1.23 as=0.113 ps=1.11 w=0.84 l=0.15
X109 VDD.t271 x30.A a_5323_2457# VDD.t270 sky130_fd_pr__pfet_01v8_hvt ad=0.135 pd=1.27 as=0.135 ps=1.27 w=1 l=0.15
X110 VSS.t674 a_939_2457# x2.X.t14 VSS.t673 sky130_fd_pr__nfet_01v8 ad=0.0878 pd=0.92 as=0.0878 ps=0.92 w=0.65 l=0.15
X111 a_678_220# a_487_n62# VDD.t471 VDD.t470 sky130_fd_pr__pfet_01v8_hvt ad=0.0882 pd=1.05 as=0.218 ps=2.2 w=0.84 l=0.15
X112 a_1415_895# x2.X.t35 VDD.t561 VDD.t560 sky130_fd_pr__pfet_01v8_hvt ad=0.132 pd=1.22 as=0.0956 ps=0.875 w=0.42 l=0.15
X113 VDD.t437 VDD.t435 a_8117_601# VDD.t436 sky130_fd_pr__pfet_01v8_hvt ad=0.154 pd=1.34 as=0.17 ps=1.81 w=0.64 l=0.15
X114 a_9644_1467# VSS.t721 a_9786_1642# VDD.t311 sky130_fd_pr__pfet_01v8_hvt ad=0.193 pd=1.34 as=0.0767 ps=0.785 w=0.42 l=0.15
X115 a_12937_304# a_12134_n88# VDD.t490 VDD.t489 sky130_fd_pr__pfet_01v8_hvt ad=0.0787 pd=0.795 as=0.0956 ps=0.875 w=0.42 l=0.15
X116 a_4862_90# a_4958_n88# VSS.t593 VSS.t592 sky130_fd_pr__nfet_01v8 ad=0.109 pd=1.36 as=0.097 ps=0.975 w=0.42 l=0.15
X117 a_12988_212# x17.X VSS.t226 VSS.t225 sky130_fd_pr__nfet_01v8 ad=0.109 pd=1.36 as=0.0567 ps=0.69 w=0.42 l=0.15
X118 VSS.t68 a_10983_895# a_11704_627# VSS.t67 sky130_fd_pr__nfet_01v8 ad=0.097 pd=0.975 as=0.109 ps=1.36 w=0.42 l=0.15
X119 VSS.t337 a_5431_601# a_5365_627# VSS.t336 sky130_fd_pr__nfet_01v8 ad=0.0882 pd=0.84 as=0.0671 ps=0.75 w=0.42 l=0.15
X120 a_15495_n62# a_15380_212# a_15072_106# VSS.t138 sky130_fd_pr__nfet_01v8 ad=0.116 pd=1.09 as=0.0486 ps=0.63 w=0.36 l=0.15
X121 VSS.t137 a_15380_212# a_15381_n88# VSS.t136 sky130_fd_pr__nfet_01v8 ad=0.0567 pd=0.69 as=0.109 ps=1.36 w=0.42 l=0.15
X122 VDD.t34 D[3].t1 a_11514_n62# VDD.t33 sky130_fd_pr__pfet_01v8_hvt ad=0.109 pd=1.36 as=0.0651 ps=0.73 w=0.42 l=0.15
X123 a_10041_993# a_9761_627# a_9949_627# VSS.t447 sky130_fd_pr__nfet_01v8 ad=0.0675 pd=0.735 as=0.066 ps=0.745 w=0.36 l=0.15
X124 VSS.t535 VDD.t758 a_6153_n62# VSS.t534 sky130_fd_pr__nfet_01v8 ad=0.0882 pd=0.84 as=0.0974 ps=0.97 w=0.42 l=0.15
X125 VDD.t650 a_9644_1467# x14.X VDD.t649 sky130_fd_pr__pfet_01v8_hvt ad=0.158 pd=1.39 as=0.26 ps=2.52 w=1 l=0.15
X126 a_9786_1642# check[2].t0 VDD.t618 VDD.t617 sky130_fd_pr__pfet_01v8_hvt ad=0.0767 pd=0.785 as=0.158 ps=1.39 w=0.42 l=0.15
X127 VDD.t358 a_14857_1289# a_14887_1642# VDD.t357 sky130_fd_pr__pfet_01v8_hvt ad=0.0693 pd=0.75 as=0.0441 ps=0.63 w=0.42 l=0.15
X128 x2.X.t31 a_939_2457# VDD.t707 VDD.t706 sky130_fd_pr__pfet_01v8_hvt ad=0.135 pd=1.27 as=0.135 ps=1.27 w=1 l=0.15
X129 a_9786_1315# check[2].t1 VSS.t587 VSS.t586 sky130_fd_pr__nfet_01v8 ad=0.0693 pd=0.75 as=0.113 ps=1.04 w=0.42 l=0.15
X130 x17.X a_13715_1642# VDD.t228 VDD.t227 sky130_fd_pr__pfet_01v8_hvt ad=0.26 pd=2.52 as=0.158 ps=1.39 w=1 l=0.15
X131 VDD.t742 a_10215_601# a_10125_993# VDD.t741 sky130_fd_pr__pfet_01v8_hvt ad=0.0798 pd=0.8 as=0.0945 ps=0.87 w=0.42 l=0.15
X132 a_7769_n62# a_7896_106# a_7350_n88# VSS.t171 sky130_fd_pr__nfet_01v8 ad=0.109 pd=1.03 as=0.0864 ps=0.91 w=0.64 l=0.15
X133 a_939_2457# x3.X VDD.t545 VDD.t544 sky130_fd_pr__pfet_01v8_hvt ad=0.135 pd=1.27 as=0.26 ps=2.52 w=1 l=0.15
X134 VDD.t96 a_5725_601# a_5675_909# VDD.t95 sky130_fd_pr__pfet_01v8_hvt ad=0.225 pd=1.38 as=0.113 ps=1.11 w=0.84 l=0.15
X135 a_5365_627# a_4811_627# a_5257_993# VSS.t545 sky130_fd_pr__nfet_01v8 ad=0.0671 pd=0.75 as=0.0675 ps=0.735 w=0.36 l=0.15
X136 VDD_SW[5].t0 a_6920_627# VSS.t5 VSS.t4 sky130_fd_pr__nfet_01v8 ad=0.169 pd=1.82 as=0.097 ps=0.975 w=0.65 l=0.15
X137 a_8140_n62# a_7350_n88# VSS.t380 VSS.t379 sky130_fd_pr__nfet_01v8 ad=0.066 pd=0.745 as=0.0703 ps=0.755 w=0.42 l=0.15
X138 a_14733_627# D[1].t0 VSS.t231 VSS.t230 sky130_fd_pr__nfet_01v8 ad=0.066 pd=0.745 as=0.109 ps=1.36 w=0.42 l=0.15
X139 VDD.t134 a_5323_2457# x9.A1.t30 VDD.t133 sky130_fd_pr__pfet_01v8_hvt ad=0.135 pd=1.27 as=0.135 ps=1.27 w=1 l=0.15
X140 a_6153_n62# a_6285_122# a_6017_n88# VSS.t350 sky130_fd_pr__nfet_01v8 ad=0.0974 pd=0.97 as=0.0864 ps=0.91 w=0.64 l=0.15
X141 VSS.t58 x3.A a_305_2457# VSS.t57 sky130_fd_pr__nfet_01v8 ad=0.0878 pd=0.92 as=0.169 ps=1.82 w=0.65 l=0.15
X142 a_2470_90# a_2566_n88# VDD.t464 VDD.t463 sky130_fd_pr__pfet_01v8_hvt ad=0.166 pd=1.8 as=0.149 ps=1.33 w=0.64 l=0.15
X143 a_8409_n88# a_7663_n62# a_8545_n62# VSS.t539 sky130_fd_pr__nfet_01v8 ad=0.0864 pd=0.91 as=0.166 ps=1.8 w=0.64 l=0.15
X144 VSS.t166 D[2].t1 a_13906_n62# VSS.t165 sky130_fd_pr__nfet_01v8 ad=0.109 pd=1.36 as=0.066 ps=0.745 w=0.42 l=0.15
X145 a_11069_122# a_10597_n88# a_11313_304# VDD.t290 sky130_fd_pr__pfet_01v8_hvt ad=0.0567 pd=0.69 as=0.0945 ps=0.87 w=0.42 l=0.15
X146 a_76_1467# x9.A1.t38 a_218_1315# VSS.t518 sky130_fd_pr__nfet_01v8 ad=0.0997 pd=0.895 as=0.0693 ps=0.75 w=0.42 l=0.15
X147 a_15799_220# a_14839_n62# VDD.t25 VDD.t24 sky130_fd_pr__pfet_01v8_hvt ad=0.113 pd=1.11 as=0.225 ps=1.38 w=0.84 l=0.15
X148 x9.A1.t12 a_5323_2457# VSS.t128 VSS.t127 sky130_fd_pr__nfet_01v8 ad=0.0878 pd=0.92 as=0.0878 ps=0.92 w=0.65 l=0.15
X149 VDD.t209 a_3333_601# a_4064_909# VDD.t208 sky130_fd_pr__pfet_01v8_hvt ad=0.218 pd=2.2 as=0.0882 ps=1.05 w=0.84 l=0.15
X150 a_10931_627# a_9761_627# a_10824_993# VSS.t446 sky130_fd_pr__nfet_01v8 ad=0.066 pd=0.745 as=0.0486 ps=0.63 w=0.36 l=0.15
X151 a_6529_304# a_6017_n88# VDD.t589 VDD.t588 sky130_fd_pr__pfet_01v8_hvt ad=0.0945 pd=0.87 as=0.0798 ps=0.8 w=0.42 l=0.15
X152 VSS.t263 a_1028_212# a_1029_n88# VSS.t262 sky130_fd_pr__nfet_01v8 ad=0.0567 pd=0.69 as=0.109 ps=1.36 w=0.42 l=0.15
X153 a_7615_1315# VSS.t309 a_7252_1467# VSS.t310 sky130_fd_pr__nfet_01v8 ad=0.0693 pd=0.75 as=0.0997 ps=0.895 w=0.42 l=0.15
X154 a_1340_993# a_27_627# a_1256_993# VDD.t711 sky130_fd_pr__pfet_01v8_hvt ad=0.0787 pd=0.795 as=0.0567 ps=0.69 w=0.42 l=0.15
X155 VDD.t132 a_5323_2457# x9.A1.t29 VDD.t131 sky130_fd_pr__pfet_01v8_hvt ad=0.135 pd=1.27 as=0.135 ps=1.27 w=1 l=0.15
X156 a_1978_1315# x9.A1.t39 a_1757_1642# VSS.t519 sky130_fd_pr__nfet_01v8 ad=0.0693 pd=0.75 as=0.0997 ps=0.895 w=0.42 l=0.15
X157 a_12036_1467# VSS.t722 a_12178_1642# VDD.t310 sky130_fd_pr__pfet_01v8_hvt ad=0.193 pd=1.34 as=0.0767 ps=0.785 w=0.42 l=0.15
X158 a_5165_627# D[5].t0 VDD.t673 VDD.t672 sky130_fd_pr__pfet_01v8_hvt ad=0.0651 pd=0.73 as=0.109 ps=1.36 w=0.42 l=0.15
X159 x2.X.t30 a_939_2457# VDD.t705 VDD.t704 sky130_fd_pr__pfet_01v8_hvt ad=0.135 pd=1.27 as=0.135 ps=1.27 w=1 l=0.15
X160 VSS.t672 a_939_2457# x2.X.t13 VSS.t671 sky130_fd_pr__nfet_01v8 ad=0.0878 pd=0.92 as=0.0878 ps=0.92 w=0.65 l=0.15
X161 VDD_SW[6].t1 a_4528_627# VDD.t452 VDD.t451 sky130_fd_pr__pfet_01v8_hvt ad=0.26 pd=2.52 as=0.149 ps=1.33 w=1 l=0.15
X162 VSS.t280 a_6199_895# a_6147_627# VSS.t279 sky130_fd_pr__nfet_01v8 ad=0.0703 pd=0.755 as=0.066 ps=0.745 w=0.42 l=0.15
X163 a_9742_n88# a_10288_106# a_10246_220# VDD.t527 sky130_fd_pr__pfet_01v8_hvt ad=0.132 pd=1.22 as=0.0882 ps=1.05 w=0.84 l=0.15
X164 a_15030_220# a_14839_n62# VDD.t23 VDD.t22 sky130_fd_pr__pfet_01v8_hvt ad=0.0882 pd=1.05 as=0.218 ps=2.2 w=0.84 l=0.15
X165 VSS.t591 a_4958_n88# VSS_SW_b[5].t0 VSS.t590 sky130_fd_pr__nfet_01v8 ad=0.097 pd=0.975 as=0.169 ps=1.82 w=0.65 l=0.15
X166 VSS.t164 reset.t1 a_29_2457# VSS.t163 sky130_fd_pr__nfet_01v8 ad=0.0754 pd=0.81 as=0.135 ps=1.56 w=0.52 l=0.15
X167 VDD.t434 VDD.t432 a_14526_n88# VDD.t433 sky130_fd_pr__pfet_01v8_hvt ad=0.0956 pd=0.875 as=0.132 ps=1.22 w=0.42 l=0.15
X168 VSS.t549 a_6017_n88# a_5927_n62# VSS.t548 sky130_fd_pr__nfet_01v8 ad=0.166 pd=1.8 as=0.116 ps=1.09 w=0.64 l=0.15
X169 a_8335_627# a_7823_601# VSS.t150 VSS.t149 sky130_fd_pr__nfet_01v8 ad=0.116 pd=1.09 as=0.166 ps=1.8 w=0.64 l=0.15
X170 a_8921_n62# a_8409_n88# VSS.t629 VSS.t628 sky130_fd_pr__nfet_01v8 ad=0.0671 pd=0.75 as=0.0882 ps=0.84 w=0.42 l=0.15
X171 x9.A1.t11 a_5323_2457# VSS.t126 VSS.t125 sky130_fd_pr__nfet_01v8 ad=0.0878 pd=0.92 as=0.0878 ps=0.92 w=0.65 l=0.15
X172 a_13715_1642# x9.A1.t40 a_13643_1642# VDD.t591 sky130_fd_pr__pfet_01v8_hvt ad=0.193 pd=1.34 as=0.0441 ps=0.63 w=0.42 l=0.15
X173 VSS.t160 a_2468_1467# x8.X VSS.t159 sky130_fd_pr__nfet_01v8 ad=0.113 pd=1.04 as=0.169 ps=1.82 w=0.65 l=0.15
X174 a_13715_1315# a_13461_1642# VSS.t581 VSS.t580 sky130_fd_pr__nfet_01v8 ad=0.0693 pd=0.75 as=0.145 ps=1.11 w=0.42 l=0.15
X175 a_8848_909# a_8432_993# a_8591_895# VDD.t600 sky130_fd_pr__pfet_01v8_hvt ad=0.0882 pd=1.05 as=0.132 ps=1.22 w=0.84 l=0.15
X176 a_10545_304# a_9742_n88# VDD.t748 VDD.t747 sky130_fd_pr__pfet_01v8_hvt ad=0.0787 pd=0.795 as=0.0956 ps=0.875 w=0.42 l=0.15
X177 a_2470_90# a_2566_n88# VSS.t405 VSS.t404 sky130_fd_pr__nfet_01v8 ad=0.109 pd=1.36 as=0.097 ps=0.975 w=0.42 l=0.15
X178 VDD.t269 x30.A a_5323_2457# VDD.t268 sky130_fd_pr__pfet_01v8_hvt ad=0.135 pd=1.27 as=0.135 ps=1.27 w=1 l=0.15
X179 VSS.t670 a_939_2457# x2.X.t12 VSS.t669 sky130_fd_pr__nfet_01v8 ad=0.0878 pd=0.92 as=0.0878 ps=0.92 w=0.65 l=0.15
X180 VDD.t201 a_941_601# a_891_909# VDD.t200 sky130_fd_pr__pfet_01v8_hvt ad=0.225 pd=1.38 as=0.113 ps=1.11 w=0.84 l=0.15
X181 a_581_627# a_27_627# a_473_993# VSS.t680 sky130_fd_pr__nfet_01v8 ad=0.0671 pd=0.75 as=0.0675 ps=0.735 w=0.36 l=0.15
X182 a_4338_n62# a_3421_n88# a_3893_122# VSS.t411 sky130_fd_pr__nfet_01v8 ad=0.066 pd=0.745 as=0.0675 ps=0.735 w=0.36 l=0.15
X183 x9.A1.t10 a_5323_2457# VSS.t124 VSS.t123 sky130_fd_pr__nfet_01v8 ad=0.0878 pd=0.92 as=0.0878 ps=0.92 w=0.65 l=0.15
X184 a_5575_627# a_5725_601# a_5431_601# VSS.t92 sky130_fd_pr__nfet_01v8 ad=0.166 pd=1.8 as=0.0864 ps=0.91 w=0.64 l=0.15
X185 a_13103_n62# a_12988_212# a_12680_106# VSS.t148 sky130_fd_pr__nfet_01v8 ad=0.116 pd=1.09 as=0.0486 ps=0.63 w=0.36 l=0.15
X186 a_3558_304# a_3421_n88# a_3112_106# VDD.t466 sky130_fd_pr__pfet_01v8_hvt ad=0.174 pd=1.41 as=0.0567 ps=0.69 w=0.42 l=0.15
X187 VDD.t634 a_10596_212# a_10597_n88# VDD.t633 sky130_fd_pr__pfet_01v8_hvt ad=0.0864 pd=0.91 as=0.166 ps=1.8 w=0.64 l=0.15
X188 a_15072_106# a_15381_n88# a_15316_n62# VSS.t281 sky130_fd_pr__nfet_01v8 ad=0.0486 pd=0.63 as=0.066 ps=0.745 w=0.36 l=0.15
X189 x3.X a_305_2457# VDD.t44 VDD.t43 sky130_fd_pr__pfet_01v8_hvt ad=0.135 pd=1.27 as=0.135 ps=1.27 w=1 l=0.15
X190 a_3648_993# a_2585_627# a_3504_909# VDD.t277 sky130_fd_pr__pfet_01v8_hvt ad=0.0567 pd=0.69 as=0.174 ps=1.41 w=0.42 l=0.15
X191 a_8677_122# a_8204_212# a_8921_n62# VSS.t341 sky130_fd_pr__nfet_01v8 ad=0.0675 pd=0.735 as=0.0671 ps=0.75 w=0.36 l=0.15
X192 a_5504_106# a_5812_212# a_5761_304# VDD.t232 sky130_fd_pr__pfet_01v8_hvt ad=0.0567 pd=0.69 as=0.0787 ps=0.795 w=0.42 l=0.15
X193 VSS.t173 a_12036_1467# x16.X VSS.t172 sky130_fd_pr__nfet_01v8 ad=0.113 pd=1.04 as=0.169 ps=1.82 w=0.65 l=0.15
X194 a_5377_n62# a_5504_106# a_4958_n88# VSS.t412 sky130_fd_pr__nfet_01v8 ad=0.109 pd=1.03 as=0.0864 ps=0.91 w=0.64 l=0.15
X195 a_12341_627# D[2].t2 VSS.t389 VSS.t388 sky130_fd_pr__nfet_01v8 ad=0.066 pd=0.745 as=0.109 ps=1.36 w=0.42 l=0.15
X196 a_939_2457# x3.X VDD.t543 VDD.t542 sky130_fd_pr__pfet_01v8_hvt ad=0.135 pd=1.27 as=0.135 ps=1.27 w=1 l=0.15
X197 VDD.t207 a_3333_601# a_3283_909# VDD.t206 sky130_fd_pr__pfet_01v8_hvt ad=0.225 pd=1.38 as=0.113 ps=1.11 w=0.84 l=0.15
X198 a_7350_n88# a_7663_n62# a_7769_n62# VSS.t538 sky130_fd_pr__nfet_01v8 ad=0.0864 pd=0.91 as=0.166 ps=1.8 w=0.64 l=0.15
X199 a_5675_909# a_5257_993# a_5431_601# VDD.t185 sky130_fd_pr__pfet_01v8_hvt ad=0.113 pd=1.11 as=0.147 ps=1.23 w=0.84 l=0.15
X200 a_7967_627# x2.X.t36 VSS.t506 VSS.t505 sky130_fd_pr__nfet_01v8 ad=0.0974 pd=0.97 as=0.0882 ps=0.84 w=0.42 l=0.15
X201 VDD.t130 a_5323_2457# x9.A1.t28 VDD.t129 sky130_fd_pr__pfet_01v8_hvt ad=0.135 pd=1.27 as=0.135 ps=1.27 w=1 l=0.15
X202 VDD.t243 a_2897_1289# a_2927_1642# VDD.t242 sky130_fd_pr__pfet_01v8_hvt ad=0.0693 pd=0.75 as=0.0441 ps=0.63 w=0.42 l=0.15
X203 a_10801_n88# a_11069_122# a_11015_220# VDD.t178 sky130_fd_pr__pfet_01v8_hvt ad=0.147 pd=1.23 as=0.113 ps=1.11 w=0.84 l=0.15
X204 VDD.t128 a_5323_2457# x9.A1.t27 VDD.t127 sky130_fd_pr__pfet_01v8_hvt ad=0.135 pd=1.27 as=0.135 ps=1.27 w=1 l=0.15
X205 a_9761_627# a_9595_627# VDD.t159 VDD.t158 sky130_fd_pr__pfet_01v8_hvt ad=0.166 pd=1.8 as=0.0864 ps=0.91 w=0.64 l=0.15
X206 a_13407_220# a_12447_n62# VDD.t481 VDD.t480 sky130_fd_pr__pfet_01v8_hvt ad=0.113 pd=1.11 as=0.225 ps=1.38 w=0.84 l=0.15
X207 a_381_627# D[7].t1 VDD.t321 VDD.t320 sky130_fd_pr__pfet_01v8_hvt ad=0.0651 pd=0.73 as=0.109 ps=1.36 w=0.42 l=0.15
X208 VSS.t424 a_647_601# a_581_627# VSS.t423 sky130_fd_pr__nfet_01v8 ad=0.0882 pd=0.84 as=0.0671 ps=0.75 w=0.42 l=0.15
X209 VSS.t597 a_8591_895# a_9312_627# VSS.t596 sky130_fd_pr__nfet_01v8 ad=0.097 pd=0.975 as=0.109 ps=1.36 w=0.42 l=0.15
X210 VDD.t193 check[2].t2 a_11539_1642# VDD.t192 sky130_fd_pr__pfet_01v8_hvt ad=0.158 pd=1.39 as=0.0767 ps=0.785 w=0.42 l=0.15
X211 a_14430_90# a_14526_n88# VDD.t570 VDD.t569 sky130_fd_pr__pfet_01v8_hvt ad=0.166 pd=1.8 as=0.149 ps=1.33 w=0.64 l=0.15
X212 a_8204_212# x13.X VDD.t247 VDD.t246 sky130_fd_pr__pfet_01v8_hvt ad=0.166 pd=1.8 as=0.0864 ps=0.91 w=0.64 l=0.15
X213 VDD.t333 D[4].t1 a_9122_n62# VDD.t332 sky130_fd_pr__pfet_01v8_hvt ad=0.109 pd=1.36 as=0.0651 ps=0.73 w=0.42 l=0.15
X214 VSS.t186 check[2].t3 a_11546_1315# VSS.t185 sky130_fd_pr__nfet_01v8 ad=0.113 pd=1.04 as=0.0693 ps=0.75 w=0.42 l=0.15
X215 VSS.t525 VDD.t759 a_14945_n62# VSS.t524 sky130_fd_pr__nfet_01v8 ad=0.0703 pd=0.755 as=0.109 ps=1.03 w=0.42 l=0.15
X216 VSS.t375 a_174_n88# VSS_SW_b[7].t0 VSS.t374 sky130_fd_pr__nfet_01v8 ad=0.097 pd=0.975 as=0.169 ps=1.82 w=0.65 l=0.15
X217 VSS.t98 a_3039_601# a_2973_627# VSS.t97 sky130_fd_pr__nfet_01v8 ad=0.0882 pd=0.84 as=0.0671 ps=0.75 w=0.42 l=0.15
X218 x13.X a_8933_1642# VSS.t323 VSS.t322 sky130_fd_pr__nfet_01v8 ad=0.169 pd=1.82 as=0.113 ps=1.04 w=0.65 l=0.15
X219 VSS.t147 a_12988_212# a_12989_n88# VSS.t146 sky130_fd_pr__nfet_01v8 ad=0.0567 pd=0.69 as=0.109 ps=1.36 w=0.42 l=0.15
X220 VDD.t126 a_5323_2457# x9.A1.t26 VDD.t125 sky130_fd_pr__pfet_01v8_hvt ad=0.135 pd=1.27 as=0.135 ps=1.27 w=1 l=0.15
X221 VSS.t36 a_305_2457# x3.X VSS.t35 sky130_fd_pr__nfet_01v8 ad=0.169 pd=1.82 as=0.0878 ps=0.92 w=0.65 l=0.15
X222 VDD_SW[7].t1 a_2136_627# VDD.t648 VDD.t647 sky130_fd_pr__pfet_01v8_hvt ad=0.26 pd=2.52 as=0.149 ps=1.33 w=1 l=0.15
X223 VDD_SW_b[5].t0 a_6199_895# VSS.t278 VSS.t277 sky130_fd_pr__nfet_01v8 ad=0.169 pd=1.82 as=0.097 ps=0.975 w=0.65 l=0.15
X224 VDD.t431 VDD.t429 a_4958_n88# VDD.t430 sky130_fd_pr__pfet_01v8_hvt ad=0.0956 pd=0.875 as=0.132 ps=1.22 w=0.42 l=0.15
X225 a_8677_122# a_8205_n88# a_8921_304# VDD.t644 sky130_fd_pr__pfet_01v8_hvt ad=0.0567 pd=0.69 as=0.0945 ps=0.87 w=0.42 l=0.15
X226 VSS.t668 a_939_2457# x2.X.t11 VSS.t667 sky130_fd_pr__nfet_01v8 ad=0.0878 pd=0.92 as=0.0878 ps=0.92 w=0.65 l=0.15
X227 a_16037_1642# a_15855_1642# VDD.t713 VDD.t712 sky130_fd_pr__pfet_01v8_hvt ad=0.0441 pd=0.63 as=0.0693 ps=0.75 w=0.42 l=0.15
X228 a_14857_1289# check[0].t2 VDD.t318 VDD.t317 sky130_fd_pr__pfet_01v8_hvt ad=0.118 pd=1.4 as=0.0693 ps=0.75 w=0.42 l=0.15
X229 VDD_SW[1].t1 a_16488_627# VDD.t46 VDD.t45 sky130_fd_pr__pfet_01v8_hvt ad=0.26 pd=2.52 as=0.149 ps=1.33 w=1 l=0.15
X230 x30.A a_4689_2457# VDD.t640 VDD.t639 sky130_fd_pr__pfet_01v8_hvt ad=0.135 pd=1.27 as=0.135 ps=1.27 w=1 l=0.15
X231 a_791_627# a_941_601# a_647_601# VSS.t190 sky130_fd_pr__nfet_01v8 ad=0.166 pd=1.8 as=0.0864 ps=0.91 w=0.64 l=0.15
X232 x2.X.t29 a_939_2457# VDD.t703 VDD.t702 sky130_fd_pr__pfet_01v8_hvt ad=0.135 pd=1.27 as=0.135 ps=1.27 w=1 l=0.15
X233 a_14857_1289# check[0].t3 VSS.t314 VSS.t313 sky130_fd_pr__nfet_01v8 ad=0.109 pd=1.36 as=0.145 ps=1.11 w=0.42 l=0.15
X234 a_4149_1642# VSS.t307 a_4149_1315# VSS.t308 sky130_fd_pr__nfet_01v8 ad=0.0997 pd=0.895 as=0.0693 ps=0.75 w=0.42 l=0.15
X235 x20.X a_16109_1642# VDD.t216 VDD.t215 sky130_fd_pr__pfet_01v8_hvt ad=0.26 pd=2.52 as=0.158 ps=1.39 w=1 l=0.15
X236 a_7823_601# x2.X.t37 VDD.t593 VDD.t592 sky130_fd_pr__pfet_01v8_hvt ad=0.147 pd=1.23 as=0.0798 ps=0.8 w=0.42 l=0.15
X237 a_9761_627# a_9595_627# VSS.t156 VSS.t155 sky130_fd_pr__nfet_01v8 ad=0.109 pd=1.36 as=0.0567 ps=0.69 w=0.42 l=0.15
X238 a_6456_909# a_6040_993# a_6199_895# VDD.t590 sky130_fd_pr__pfet_01v8_hvt ad=0.0882 pd=1.05 as=0.132 ps=1.22 w=0.84 l=0.15
X239 VSS.t625 D[3].t2 a_11514_n62# VSS.t624 sky130_fd_pr__nfet_01v8 ad=0.109 pd=1.36 as=0.066 ps=0.745 w=0.42 l=0.15
X240 x9.A1.t9 a_5323_2457# VSS.t122 VSS.t121 sky130_fd_pr__nfet_01v8 ad=0.0878 pd=0.92 as=0.0878 ps=0.92 w=0.65 l=0.15
X241 a_8731_627# x2.X.t38 VSS.t554 VSS.t553 sky130_fd_pr__nfet_01v8 ad=0.109 pd=1.03 as=0.0703 ps=0.755 w=0.42 l=0.15
X242 a_891_909# a_473_993# a_647_601# VDD.t249 sky130_fd_pr__pfet_01v8_hvt ad=0.113 pd=1.11 as=0.147 ps=1.23 w=0.84 l=0.15