* NGSPICE file created from hgu_clk_sample_flat.ext - technology: sky130A

.subckt hgu_clk_sample_flat set reset sample_delay_offset CAP_CTRL_CODE0[2] CAP_CTRL_CODE0[1]
+ CAP_CTRL_CODE1[2] CAP_CTRL_CODE1[1] CAP_CTRL_CODE1[0] CAP_CTRL_CODE2[2] CAP_CTRL_CODE2[1]
+ CAP_CTRL_CODE3[2] CAP_CTRL_CODE3[1] CAP_CTRL_CODE3[0] CAP_CTRL_CODE1[3] CAP_CTRL_CODE3[3]
+ sample_clk_b sample_clk clk CAP_CTRL_CODE2[3] CAP_CTRL_CODE0[0] CAP_CTRL_CODE0[3]
+ CAP_CTRL_CODE2[0] vdd vss
X0 a_11371_5456# x2.x1.IN a_11283_5456# vss.t27 sky130_fd_pr__nfet_01v8 ad=0.0441 pd=0.63 as=0.122 ps=1.42 w=0.42 l=0.15
X1 vss.t61 a_3106_6090# a_3041_6494# vss.t60 sky130_fd_pr__nfet_01v8 ad=0.0588 pd=0.7 as=0.066 ps=0.745 w=0.42 l=0.15
X2 x2.x4.x2.floating CAP_CTRL_CODE0[0].t0 x2.x4.x9.output_stack vss.t94 sky130_fd_pr__nfet_01v8 ad=0.122 pd=1.42 as=0.124 ps=1.43 w=0.42 l=0.15
X3 a_4687_7397# x3.A a_4599_7535# vdd.t77 sky130_fd_pr__pfet_01v8_hvt ad=0.122 pd=1.42 as=0.122 ps=1.42 w=0.42 l=0.15
X4 x2.x1.x5[7].floating.t7 x2.x1.x10.Y.t2 x2.x1.x9.output_stack vdd.t10 sky130_fd_pr__pfet_01v8 ad=0.122 pd=1.42 as=0.101 ps=0.9 w=0.42 l=0.15
X5 x7.A x2.x3.x9.output_stack a_4047_2819# vdd.t25 sky130_fd_pr__pfet_01v8_hvt ad=0.122 pd=1.42 as=0.0651 ps=0.73 w=0.42 l=0.15
X6 a_2325_6090# x1.x3.Y vdd.t22 vdd.t21 sky130_fd_pr__pfet_01v8_hvt ad=0.147 pd=1.23 as=0.0798 ps=0.8 w=0.42 l=0.15
X7 a_10112_1680# x2.x3.IN a_10024_1818# vdd.t113 sky130_fd_pr__pfet_01v8_hvt ad=0.122 pd=1.42 as=0.122 ps=1.42 w=0.42 l=0.15
X8 x2.x4.x9.output_stack x2.x4.x10.Y.t2 x2.x4.x5[7].floating.t7 vdd.t18 sky130_fd_pr__pfet_01v8 ad=0.101 pd=0.9 as=0.122 ps=1.42 w=0.42 l=0.15
X9 a_10472_6534# x2.x4.x9.output_stack x2.x1.IN vdd.t35 sky130_fd_pr__pfet_01v8_hvt ad=0.0651 pd=0.73 as=0.122 ps=1.42 w=0.42 l=0.15
X10 a_3340_6116# a_2932_6494# a_3106_6090# vdd.t89 sky130_fd_pr__pfet_01v8_hvt ad=0.0882 pd=1.05 as=0.123 ps=1.17 w=0.84 l=0.15
X11 a_10065_3897# x2.x3.IN a_9977_3897# vss.t113 sky130_fd_pr__nfet_01v8 ad=0.0441 pd=0.63 as=0.122 ps=1.42 w=0.42 l=0.15
X12 a_2325_6090# a_2151_6116# a_2465_6482# vss.t109 sky130_fd_pr__nfet_01v8 ad=0.0864 pd=0.91 as=0.101 ps=0.99 w=0.64 l=0.15
X13 a_11396_7121# x2.x1.IN a_11308_6983# vdd.t41 sky130_fd_pr__pfet_01v8_hvt ad=0.122 pd=1.42 as=0.122 ps=1.42 w=0.42 l=0.15
X14 x2.x1.x10.Y.t0 CAP_CTRL_CODE1[3].t0 vdd.t43 vdd.t42 sky130_fd_pr__pfet_01v8_hvt ad=0.26 pd=2.52 as=0.26 ps=2.52 w=1 l=0.15
X15 x2.x4.x10.Y.t0 CAP_CTRL_CODE0[3].t0 vss.t71 vss.t70 sky130_fd_pr__nfet_01v8 ad=0.169 pd=1.82 as=0.169 ps=1.82 w=0.65 l=0.15
X16 a_2151_6116# a_1870_6122# a_2058_6116# vdd.t91 sky130_fd_pr__pfet_01v8_hvt ad=0.0567 pd=0.69 as=0.0662 ps=0.735 w=0.42 l=0.15
X17 a_4734_5594# x3.A a_4662_5594# vss.t64 sky130_fd_pr__nfet_01v8 ad=0.122 pd=1.42 as=0.0441 ps=0.63 w=0.42 l=0.15
X18 x2.x2.x5[7].floating.t7 x2.x2.x10.Y.t2 x2.x2.x9.output_stack vdd.t87 sky130_fd_pr__pfet_01v8 ad=0.122 pd=1.42 as=0.101 ps=0.9 w=0.42 l=0.15
X19 vss.t53 a_2678_2626# sample_clk.t2 vss.t50 sky130_fd_pr__nfet_01v8 ad=0.13 pd=1.46 as=0.0693 ps=0.75 w=0.42 l=0.15
X20 a_16846_3483# x2.x2.IN a_16774_3483# vss.t12 sky130_fd_pr__nfet_01v8 ad=0.122 pd=1.42 as=0.0441 ps=0.63 w=0.42 l=0.15
X21 x2.x2.x6.SW sample_delay_offset.t0 vdd.t81 vdd.t80 sky130_fd_pr__pfet_01v8_hvt ad=0.26 pd=2.52 as=0.26 ps=2.52 w=1 l=0.15
X22 vdd.t67 a_3106_6090# a_3813_6132# vdd.t66 sky130_fd_pr__pfet_01v8_hvt ad=0.149 pd=1.33 as=0.166 ps=1.8 w=0.64 l=0.15
X23 vdd.t12 x7.Y x3.Y vdd.t11 sky130_fd_pr__pfet_01v8_hvt ad=0.26 pd=2.52 as=0.135 ps=1.27 w=1 l=0.15
X24 x2.x3.x9.output_stack CAP_CTRL_CODE3[2].t0 x2.x3.x4[3].floating vss.t74 sky130_fd_pr__nfet_01v8 ad=0.0966 pd=0.88 as=0.122 ps=1.42 w=0.42 l=0.15
X25 vdd.t59 a_2678_2626# sample_clk.t5 vdd.t56 sky130_fd_pr__pfet_01v8 ad=0.391 pd=3.14 as=0.208 ps=1.59 w=1.26 l=0.15
X26 a_17181_6534# x2.x1.x9.output_stack x2.x2.IN vdd.t15 sky130_fd_pr__pfet_01v8_hvt ad=0.0651 pd=0.73 as=0.122 ps=1.42 w=0.42 l=0.15
X27 x3.A a_3813_6132# vdd.t98 vdd.t97 sky130_fd_pr__pfet_01v8_hvt ad=0.26 pd=2.52 as=0.149 ps=1.33 w=1 l=0.15
X28 x2.x2.x7.floating sample_delay_offset.t1 x2.x2.x9.output_stack vss.t93 sky130_fd_pr__nfet_01v8 ad=0.122 pd=1.42 as=0.122 ps=1.42 w=0.42 l=0.15
X29 x2.x1.x9.output_stack x2.x1.x6.SW x2.x1.x6.floating vdd.t124 sky130_fd_pr__pfet_01v8 ad=0.122 pd=1.42 as=0.122 ps=1.42 w=0.42 l=0.15
X30 a_10472_6193# x2.x1.IN vdd.t40 vss.t33 sky130_fd_pr__nfet_01v8 ad=0.13 pd=1.46 as=0.0693 ps=0.75 w=0.42 l=0.15
X31 vdd.t121 CAP_CTRL_CODE3[3].t0 x2.x3.x10.Y.t1 vdd.t120 sky130_fd_pr__pfet_01v8_hvt ad=0.26 pd=2.52 as=0.26 ps=2.52 w=1 l=0.15
X32 vdd.t55 a_2678_2006# sample_clk_b.t5 vdd.t52 sky130_fd_pr__pfet_01v8 ad=0.208 pd=1.59 as=0.391 ps=3.14 w=1.26 l=0.15
X33 a_4662_5180# x3.A a_4574_5180# vss.t63 sky130_fd_pr__nfet_01v8 ad=0.0441 pd=0.63 as=0.122 ps=1.42 w=0.42 l=0.15
X34 vss.t32 x2.x1.IN a_11371_5180# vss.t28 sky130_fd_pr__nfet_01v8 ad=0.122 pd=1.42 as=0.0441 ps=0.63 w=0.42 l=0.15
X35 a_16846_3759# x2.x2.IN a_16774_3759# vss.t12 sky130_fd_pr__nfet_01v8 ad=0.122 pd=1.42 as=0.0441 ps=0.63 w=0.42 l=0.15
X36 a_4047_3022# x7.A vdd.t131 vss.t139 sky130_fd_pr__nfet_01v8 ad=0.0651 pd=0.73 as=0.0693 ps=0.75 w=0.42 l=0.15
X37 a_11371_5870# x2.x1.IN a_11283_5732# vss.t27 sky130_fd_pr__nfet_01v8 ad=0.0441 pd=0.63 as=0.122 ps=1.42 w=0.42 l=0.15
X38 x2.x1.x9.output_stack x2.x1.x10.Y.t3 x2.x1.x5[7].floating.t6 vdd.t10 sky130_fd_pr__pfet_01v8 ad=0.101 pd=0.9 as=0.122 ps=1.42 w=0.42 l=0.15
X39 a_16774_4173# x2.x2.IN vss.t17 vss.t11 sky130_fd_pr__nfet_01v8 ad=0.0441 pd=0.63 as=0.122 ps=1.42 w=0.42 l=0.15
X40 x2.x3.x5[7].floating.t7 x2.x3.x10.Y.t2 x2.x3.x9.output_stack vdd.t9 sky130_fd_pr__pfet_01v8 ad=0.122 pd=1.42 as=0.101 ps=0.9 w=0.42 l=0.15
X41 x2.x4.x9.output_stack CAP_CTRL_CODE0[2].t0 x2.x4.x4[3].floating vss.t0 sky130_fd_pr__nfet_01v8 ad=0.0966 pd=0.88 as=0.122 ps=1.42 w=0.42 l=0.15
X42 a_4662_5456# x3.A a_4574_5456# vss.t63 sky130_fd_pr__nfet_01v8 ad=0.0441 pd=0.63 as=0.122 ps=1.42 w=0.42 l=0.15
X43 a_11443_5318# x2.x1.IN a_11371_5456# vss.t28 sky130_fd_pr__nfet_01v8 ad=0.122 pd=1.42 as=0.0441 ps=0.63 w=0.42 l=0.15
X44 x2.x1.x5[7].floating.t5 x2.x1.x10.Y.t4 x2.x1.x9.output_stack vdd.t10 sky130_fd_pr__pfet_01v8 ad=0.122 pd=1.42 as=0.101 ps=0.9 w=0.42 l=0.15
X45 a_16774_3345# x2.x2.IN a_16686_3345# vss.t11 sky130_fd_pr__nfet_01v8 ad=0.0441 pd=0.63 as=0.122 ps=1.42 w=0.42 l=0.15
X46 x2.x3.x9.output_stack x2.x3.x10.Y.t3 x2.x3.x5[7].floating.t6 vdd.t9 sky130_fd_pr__pfet_01v8 ad=0.101 pd=0.9 as=0.122 ps=1.42 w=0.42 l=0.15
X47 x2.x4.x5[7].floating.t6 x2.x4.x10.Y.t3 x2.x4.x9.output_stack vdd.t18 sky130_fd_pr__pfet_01v8 ad=0.122 pd=1.42 as=0.101 ps=0.9 w=0.42 l=0.15
X48 a_17181_6534# x2.x2.IN vss.t16 vdd.t15 sky130_fd_pr__pfet_01v8_hvt ad=0.13 pd=1.46 as=0.0693 ps=0.75 w=0.42 l=0.15
X49 x2.x1.x9.output_stack sample_delay_offset.t2 x2.x1.x7.floating vss.t95 sky130_fd_pr__nfet_01v8 ad=0.122 pd=1.42 as=0.122 ps=1.42 w=0.42 l=0.15
X50 vdd.t123 a_3056_2150# a_2678_2006# vdd.t122 sky130_fd_pr__pfet_01v8 ad=0.365 pd=3.1 as=0.365 ps=3.1 w=1.26 l=0.15
X51 x2.x3.x5[7].floating.t5 x2.x3.x10.Y.t4 x2.x3.x9.output_stack vdd.t9 sky130_fd_pr__pfet_01v8 ad=0.122 pd=1.42 as=0.101 ps=0.9 w=0.42 l=0.15
X52 x2.x1.x9.output_stack x2.x1.x10.Y.t5 x2.x1.x5[7].floating.t4 vdd.t10 sky130_fd_pr__pfet_01v8 ad=0.101 pd=0.9 as=0.122 ps=1.42 w=0.42 l=0.15
X53 x1.x4.Y reset.t0 vdd.t101 vdd.t100 sky130_fd_pr__pfet_01v8_hvt ad=0.26 pd=2.52 as=0.26 ps=2.52 w=1 l=0.15
X54 a_10137_3759# x2.x3.IN a_10065_3897# vss.t111 sky130_fd_pr__nfet_01v8 ad=0.122 pd=1.42 as=0.0441 ps=0.63 w=0.42 l=0.15
X55 vss.t48 a_2678_2006# sample_clk_b.t2 vss.t47 sky130_fd_pr__nfet_01v8 ad=0.0693 pd=0.75 as=0.13 ps=1.46 w=0.42 l=0.15
X56 x2.x2.x9.output_stack x2.x2.x10.Y.t3 x2.x2.x5[7].floating.t6 vdd.t50 sky130_fd_pr__pfet_01v8 ad=0.101 pd=0.9 as=0.122 ps=1.42 w=0.42 l=0.15
X57 x2.x1.x5[7].floating.t3 x2.x1.x10.Y.t6 x2.x1.x9.output_stack vdd.t10 sky130_fd_pr__pfet_01v8 ad=0.122 pd=1.42 as=0.101 ps=0.9 w=0.42 l=0.15
X58 a_11371_6146# x2.x1.IN a_11283_6008# vss.t27 sky130_fd_pr__nfet_01v8 ad=0.0441 pd=0.63 as=0.122 ps=1.42 w=0.42 l=0.15
X59 a_4687_7121# x3.A a_4599_6983# vdd.t76 sky130_fd_pr__pfet_01v8_hvt ad=0.122 pd=1.42 as=0.122 ps=1.42 w=0.42 l=0.15
X60 x2.x2.x4[3].floating CAP_CTRL_CODE2[2].t0 x2.x2.x9.output_stack vss.t35 sky130_fd_pr__nfet_01v8 ad=0.122 pd=1.42 as=0.0966 ps=0.88 w=0.42 l=0.15
X61 vdd.t69 sample_delay_offset.t3 x2.x1.x6.SW vdd.t68 sky130_fd_pr__pfet_01v8_hvt ad=0.26 pd=2.52 as=0.26 ps=2.52 w=1 l=0.15
X62 a_11371_5318# x2.x1.IN a_11283_5180# vss.t27 sky130_fd_pr__nfet_01v8 ad=0.0441 pd=0.63 as=0.122 ps=1.42 w=0.42 l=0.15
X63 a_10112_2232# x2.x3.IN a_10024_2094# vdd.t112 sky130_fd_pr__pfet_01v8_hvt ad=0.122 pd=1.42 as=0.122 ps=1.42 w=0.42 l=0.15
X64 a_4047_2819# x7.A vss.t138 vdd.t25 sky130_fd_pr__pfet_01v8_hvt ad=0.0651 pd=0.73 as=0.0693 ps=0.75 w=0.42 l=0.15
X65 x2.x2.x9.output_stack CAP_CTRL_CODE2[2].t1 x2.x2.x4[3].floating vss.t72 sky130_fd_pr__nfet_01v8 ad=0.0966 pd=0.88 as=0.122 ps=1.42 w=0.42 l=0.15
X66 a_2058_6116# x1.x2.D vss.t82 vss.t81 sky130_fd_pr__nfet_01v8 ad=0.066 pd=0.745 as=0.109 ps=1.36 w=0.42 l=0.15
X67 a_10065_3483# x2.x3.IN a_9977_3345# vss.t113 sky130_fd_pr__nfet_01v8 ad=0.0441 pd=0.63 as=0.122 ps=1.42 w=0.42 l=0.15
X68 vss.t90 clk.t0 a_1704_6122# vss.t89 sky130_fd_pr__nfet_01v8 ad=0.0567 pd=0.69 as=0.109 ps=1.36 w=0.42 l=0.15
X69 a_10472_6193# x2.x4.x9.output_stack vss.t118 vss.t117 sky130_fd_pr__nfet_01v8 ad=0.122 pd=1.42 as=0.122 ps=1.42 w=0.42 l=0.15
X70 x2.x1.x9.output_stack CAP_CTRL_CODE1[1].t0 x2.x1.x3[1].floating vss.t73 sky130_fd_pr__nfet_01v8 ad=0.0966 pd=0.88 as=0.122 ps=1.42 w=0.42 l=0.15
X71 x2.x2.x6.floating x2.x2.x6.SW x2.x2.x9.output_stack vdd.t6 sky130_fd_pr__pfet_01v8 ad=0.122 pd=1.42 as=0.122 ps=1.42 w=0.42 l=0.15
X72 vss.t65 x3.A a_4662_5180# vss.t64 sky130_fd_pr__nfet_01v8 ad=0.122 pd=1.42 as=0.0441 ps=0.63 w=0.42 l=0.15
X73 a_4662_5870# x3.A a_4574_5732# vss.t63 sky130_fd_pr__nfet_01v8 ad=0.0441 pd=0.63 as=0.122 ps=1.42 w=0.42 l=0.15
X74 a_11443_5870# x2.x1.IN a_11371_5870# vss.t28 sky130_fd_pr__nfet_01v8 ad=0.122 pd=1.42 as=0.0441 ps=0.63 w=0.42 l=0.15
X75 a_10065_3759# x2.x3.IN a_9977_3621# vss.t113 sky130_fd_pr__nfet_01v8 ad=0.0441 pd=0.63 as=0.122 ps=1.42 w=0.42 l=0.15
X76 x2.x2.x4[3].floating CAP_CTRL_CODE2[2].t2 x2.x2.x9.output_stack vss.t133 sky130_fd_pr__nfet_01v8 ad=0.122 pd=1.42 as=0.0966 ps=0.88 w=0.42 l=0.15
X77 vdd.t83 a_3056_2936# a_2678_2626# vdd.t82 sky130_fd_pr__pfet_01v8 ad=0.365 pd=3.1 as=0.365 ps=3.1 w=1.26 l=0.15
X78 vss.t39 a_2325_6090# a_2259_6494# vss.t38 sky130_fd_pr__nfet_01v8 ad=0.084 pd=0.82 as=0.0671 ps=0.75 w=0.42 l=0.15
X79 a_3106_6090# x1.x3.Y vdd.t20 vdd.t19 sky130_fd_pr__pfet_01v8_hvt ad=0.123 pd=1.17 as=0.0819 ps=0.81 w=0.42 l=0.15
X80 x2.x4.x9.output_stack x2.x4.x10.Y.t4 x2.x4.x5[7].floating.t5 vdd.t18 sky130_fd_pr__pfet_01v8 ad=0.101 pd=0.9 as=0.122 ps=1.42 w=0.42 l=0.15
X81 a_16846_4035# x2.x2.IN a_16774_4173# vss.t12 sky130_fd_pr__nfet_01v8 ad=0.122 pd=1.42 as=0.0441 ps=0.63 w=0.42 l=0.15
X82 x2.x4.x5[7].floating.t4 x2.x4.x10.Y.t5 x2.x4.x9.output_stack vdd.t18 sky130_fd_pr__pfet_01v8 ad=0.122 pd=1.42 as=0.101 ps=0.9 w=0.42 l=0.15
X83 a_17181_6193# x2.x1.x9.output_stack vss.t67 vss.t66 sky130_fd_pr__nfet_01v8 ad=0.122 pd=1.42 as=0.122 ps=1.42 w=0.42 l=0.15
X84 a_4734_5318# x3.A a_4662_5456# vss.t64 sky130_fd_pr__nfet_01v8 ad=0.122 pd=1.42 as=0.0441 ps=0.63 w=0.42 l=0.15
X85 x2.x3.x6.SW sample_delay_offset.t4 vdd.t29 vdd.t28 sky130_fd_pr__pfet_01v8_hvt ad=0.26 pd=2.52 as=0.26 ps=2.52 w=1 l=0.15
X86 x2.x3.x9.output_stack x2.x3.x10.Y.t5 x2.x3.x5[7].floating.t4 vdd.t9 sky130_fd_pr__pfet_01v8 ad=0.101 pd=0.9 as=0.122 ps=1.42 w=0.42 l=0.15
X87 sample_clk.t1 a_2678_2626# vss.t52 vss.t50 sky130_fd_pr__nfet_01v8 ad=0.0693 pd=0.75 as=0.0693 ps=0.75 w=0.42 l=0.15
X88 vdd.t65 a_3106_6090# a_3018_6116# vdd.t64 sky130_fd_pr__pfet_01v8_hvt ad=0.0819 pd=0.81 as=0.0924 ps=0.86 w=0.42 l=0.15
X89 x2.x4.x9.output_stack sample_delay_offset.t5 x2.x4.x7.floating vss.t78 sky130_fd_pr__nfet_01v8 ad=0.122 pd=1.42 as=0.122 ps=1.42 w=0.42 l=0.15
X90 a_16846_3207# x2.x2.IN a_16774_3345# vss.t12 sky130_fd_pr__nfet_01v8 ad=0.122 pd=1.42 as=0.0441 ps=0.63 w=0.42 l=0.15
X91 vss.t6 x2.x2.x9.output_stack a_10756_3022# vss.t5 sky130_fd_pr__nfet_01v8 ad=0.122 pd=1.42 as=0.122 ps=1.42 w=0.42 l=0.15
X92 sample_clk.t4 a_2678_2626# vdd.t58 vdd.t56 sky130_fd_pr__pfet_01v8 ad=0.208 pd=1.59 as=0.208 ps=1.59 w=1.26 l=0.15
X93 vss.t137 x7.A x7.Y vss.t136 sky130_fd_pr__nfet_01v8 ad=0.169 pd=1.82 as=0.169 ps=1.82 w=0.65 l=0.15
X94 a_3106_6090# a_2932_6494# a_3222_6482# vss.t86 sky130_fd_pr__nfet_01v8 ad=0.0864 pd=0.91 as=0.12 ps=1.08 w=0.64 l=0.15
X95 vdd.t39 x2.x1.IN a_10472_6193# vss.t31 sky130_fd_pr__nfet_01v8 ad=0.0693 pd=0.75 as=0.0651 ps=0.73 w=0.42 l=0.15
X96 a_11371_5732# x2.x1.IN a_11283_5732# vss.t27 sky130_fd_pr__nfet_01v8 ad=0.0441 pd=0.63 as=0.122 ps=1.42 w=0.42 l=0.15
X97 x2.x3.x9.output_stack x2.x3.x10.Y.t6 x2.x3.x5[7].floating.t3 vdd.t9 sky130_fd_pr__pfet_01v8 ad=0.101 pd=0.9 as=0.122 ps=1.42 w=0.42 l=0.15
X98 vdd.t130 x7.A a_4047_3022# vss.t135 sky130_fd_pr__nfet_01v8 ad=0.0693 pd=0.75 as=0.13 ps=1.46 w=0.42 l=0.15
X99 a_11396_7397# x2.x1.IN a_11308_7259# vdd.t38 sky130_fd_pr__pfet_01v8_hvt ad=0.122 pd=1.42 as=0.122 ps=1.42 w=0.42 l=0.15
X100 a_3222_6482# x1.x3.Y vss.t21 vss.t20 sky130_fd_pr__nfet_01v8 ad=0.12 pd=1.08 as=0.0588 ps=0.7 w=0.42 l=0.15
X101 x1.x2.D a_3106_6090# vss.t59 vss.t58 sky130_fd_pr__nfet_01v8 ad=0.169 pd=1.82 as=0.097 ps=0.975 w=0.65 l=0.15
X102 a_4662_6146# x3.A a_4574_6008# vss.t63 sky130_fd_pr__nfet_01v8 ad=0.0441 pd=0.63 as=0.122 ps=1.42 w=0.42 l=0.15
X103 x2.x1.x9.output_stack x2.x1.IN a_11371_6146# vss.t28 sky130_fd_pr__nfet_01v8 ad=0.122 pd=1.42 as=0.0441 ps=0.63 w=0.42 l=0.15
X104 vdd.t3 a_2619_6316# a_2569_6116# vdd.t2 sky130_fd_pr__pfet_01v8_hvt ad=0.225 pd=1.38 as=0.113 ps=1.11 w=0.84 l=0.15
X105 x2.x3.x4[3].floating CAP_CTRL_CODE3[2].t1 x2.x3.x9.output_stack vss.t85 sky130_fd_pr__nfet_01v8 ad=0.122 pd=1.42 as=0.0966 ps=0.88 w=0.42 l=0.15
X106 vdd.t61 sample_delay_offset.t6 x2.x4.x6.SW vdd.t60 sky130_fd_pr__pfet_01v8_hvt ad=0.26 pd=2.52 as=0.26 ps=2.52 w=1 l=0.15
X107 a_4662_5318# x3.A a_4574_5180# vss.t63 sky130_fd_pr__nfet_01v8 ad=0.0441 pd=0.63 as=0.122 ps=1.42 w=0.42 l=0.15
X108 a_16774_4035# x2.x2.IN a_16686_3897# vss.t11 sky130_fd_pr__nfet_01v8 ad=0.0441 pd=0.63 as=0.122 ps=1.42 w=0.42 l=0.15
X109 a_11443_5318# x2.x1.IN a_11371_5318# vss.t28 sky130_fd_pr__nfet_01v8 ad=0.122 pd=1.42 as=0.0441 ps=0.63 w=0.42 l=0.15
X110 a_10472_6534# x2.x1.IN vss.t30 vdd.t35 sky130_fd_pr__pfet_01v8_hvt ad=0.13 pd=1.46 as=0.0693 ps=0.75 w=0.42 l=0.15
X111 x2.x4.x3[1].floating CAP_CTRL_CODE0[1].t0 x2.x4.x9.output_stack vss.t88 sky130_fd_pr__nfet_01v8 ad=0.122 pd=1.42 as=0.0966 ps=0.88 w=0.42 l=0.15
X112 a_10137_3483# x2.x3.IN a_10065_3483# vss.t111 sky130_fd_pr__nfet_01v8 ad=0.122 pd=1.42 as=0.0441 ps=0.63 w=0.42 l=0.15
X113 x2.x2.x9.output_stack CAP_CTRL_CODE2[1].t0 x2.x2.x3[1].floating vss.t75 sky130_fd_pr__nfet_01v8 ad=0.0966 pd=0.88 as=0.122 ps=1.42 w=0.42 l=0.15
X114 a_16774_3207# x2.x2.IN x2.x2.x9.output_stack vss.t11 sky130_fd_pr__nfet_01v8 ad=0.0441 pd=0.63 as=0.122 ps=1.42 w=0.42 l=0.15
X115 x2.x1.x5[7].floating.t2 x2.x1.x10.Y.t7 x2.x1.x9.output_stack vdd.t10 sky130_fd_pr__pfet_01v8 ad=0.122 pd=1.42 as=0.101 ps=0.9 w=0.42 l=0.15
X116 vdd.t17 x2.x2.IN a_17181_6193# vss.t15 sky130_fd_pr__nfet_01v8 ad=0.0693 pd=0.75 as=0.0651 ps=0.73 w=0.42 l=0.15
X117 a_16821_1956# x2.x2.IN a_16733_2094# vdd.t13 sky130_fd_pr__pfet_01v8_hvt ad=0.122 pd=1.42 as=0.122 ps=1.42 w=0.42 l=0.15
X118 vdd.t8 x2.x2.x9.output_stack a_10756_2819# vdd.t7 sky130_fd_pr__pfet_01v8_hvt ad=0.122 pd=1.42 as=0.122 ps=1.42 w=0.42 l=0.15
X119 a_2465_6482# a_2619_6316# a_2325_6090# vss.t2 sky130_fd_pr__nfet_01v8 ad=0.166 pd=1.8 as=0.0864 ps=0.91 w=0.64 l=0.15
X120 x2.x4.x9.output_stack CAP_CTRL_CODE0[1].t1 x2.x4.x3[1].floating vss.t55 sky130_fd_pr__nfet_01v8 ad=0.0966 pd=0.88 as=0.122 ps=1.42 w=0.42 l=0.15
X121 x2.x2.x5[7].floating.t5 x2.x2.x10.Y.t4 x2.x2.x9.output_stack vdd.t92 sky130_fd_pr__pfet_01v8 ad=0.122 pd=1.42 as=0.101 ps=0.9 w=0.42 l=0.15
X122 x2.x1.x9.output_stack CAP_CTRL_CODE1[2].t0 x2.x1.x4[3].floating vss.t98 sky130_fd_pr__nfet_01v8 ad=0.0966 pd=0.88 as=0.122 ps=1.42 w=0.42 l=0.15
X123 x2.x2.x9.output_stack CAP_CTRL_CODE2[0].t0 x2.x2.x2.floating vss.t62 sky130_fd_pr__nfet_01v8 ad=0.124 pd=1.43 as=0.122 ps=1.42 w=0.42 l=0.15
X124 x2.x1.x4[3].floating CAP_CTRL_CODE1[2].t1 x2.x1.x9.output_stack vss.t87 sky130_fd_pr__nfet_01v8 ad=0.122 pd=1.42 as=0.0966 ps=0.88 w=0.42 l=0.15
X125 a_4734_5870# x3.A a_4662_5870# vss.t64 sky130_fd_pr__nfet_01v8 ad=0.122 pd=1.42 as=0.0441 ps=0.63 w=0.42 l=0.15
X126 a_10137_3759# x2.x3.IN a_10065_3759# vss.t111 sky130_fd_pr__nfet_01v8 ad=0.122 pd=1.42 as=0.0441 ps=0.63 w=0.42 l=0.15
X127 a_2235_6116# a_1704_6122# a_2151_6116# vdd.t128 sky130_fd_pr__pfet_01v8_hvt ad=0.0945 pd=0.87 as=0.0567 ps=0.69 w=0.42 l=0.15
X128 a_3553_3025# x3.A x3.Y vss.t9 sky130_fd_pr__nfet_01v8 ad=0.0878 pd=0.92 as=0.169 ps=1.82 w=0.65 l=0.15
X129 a_11371_6008# x2.x1.IN a_11283_6008# vss.t27 sky130_fd_pr__nfet_01v8 ad=0.0441 pd=0.63 as=0.122 ps=1.42 w=0.42 l=0.15
X130 a_10065_4173# x2.x3.IN vss.t116 vss.t113 sky130_fd_pr__nfet_01v8 ad=0.0441 pd=0.63 as=0.122 ps=1.42 w=0.42 l=0.15
X131 vss.t134 x7.A a_4047_2819# vdd.t25 sky130_fd_pr__pfet_01v8_hvt ad=0.0693 pd=0.75 as=0.13 ps=1.46 w=0.42 l=0.15
X132 vdd.t1 a_2619_6316# a_3340_6116# vdd.t0 sky130_fd_pr__pfet_01v8_hvt ad=0.218 pd=2.2 as=0.0882 ps=1.05 w=0.84 l=0.15
X133 a_10065_3345# x2.x3.IN a_9977_3345# vss.t113 sky130_fd_pr__nfet_01v8 ad=0.0441 pd=0.63 as=0.122 ps=1.42 w=0.42 l=0.15
X134 vss.t4 x3.Y a_3056_2936# vss.t3 sky130_fd_pr__nfet_01v8 ad=0.122 pd=1.42 as=0.122 ps=1.42 w=0.42 l=0.15
X135 a_1870_6122# a_1704_6122# vdd.t127 vdd.t126 sky130_fd_pr__pfet_01v8_hvt ad=0.166 pd=1.8 as=0.0864 ps=0.91 w=0.64 l=0.15
X136 x2.x1.x9.output_stack x2.x1.IN a_11308_6983# vdd.t37 sky130_fd_pr__pfet_01v8_hvt ad=0.122 pd=1.42 as=0.122 ps=1.42 w=0.42 l=0.15
X137 a_4662_5732# x3.A a_4574_5732# vss.t63 sky130_fd_pr__nfet_01v8 ad=0.0441 pd=0.63 as=0.122 ps=1.42 w=0.42 l=0.15
X138 a_11443_5594# x2.x1.IN a_11371_5732# vss.t28 sky130_fd_pr__nfet_01v8 ad=0.122 pd=1.42 as=0.0441 ps=0.63 w=0.42 l=0.15
X139 a_4687_7397# x3.A a_4599_7259# vdd.t75 sky130_fd_pr__pfet_01v8_hvt ad=0.122 pd=1.42 as=0.122 ps=1.42 w=0.42 l=0.15
X140 x2.x4.x9.output_stack x3.A a_4662_6146# vss.t64 sky130_fd_pr__nfet_01v8 ad=0.122 pd=1.42 as=0.0441 ps=0.63 w=0.42 l=0.15
X141 x1.x3.Y set.t0 vss.t119 vss.t101 sky130_fd_pr__nfet_01v8 ad=0.169 pd=1.82 as=0.169 ps=1.82 w=0.65 l=0.15
X142 a_16774_3621# x2.x2.IN a_16686_3621# vss.t11 sky130_fd_pr__nfet_01v8 ad=0.0441 pd=0.63 as=0.122 ps=1.42 w=0.42 l=0.15
X143 vss.t77 CAP_CTRL_CODE2[3].t0 x2.x2.x10.Y.t1 vss.t76 sky130_fd_pr__nfet_01v8 ad=0.169 pd=1.82 as=0.169 ps=1.82 w=0.65 l=0.15
X144 x2.x4.x9.output_stack x2.x4.x6.SW x2.x4.x6.floating vdd.t88 sky130_fd_pr__pfet_01v8 ad=0.122 pd=1.42 as=0.122 ps=1.42 w=0.42 l=0.15
X145 a_16846_4035# x2.x2.IN a_16774_4035# vss.t12 sky130_fd_pr__nfet_01v8 ad=0.122 pd=1.42 as=0.0441 ps=0.63 w=0.42 l=0.15
X146 a_4734_5318# x3.A a_4662_5318# vss.t64 sky130_fd_pr__nfet_01v8 ad=0.122 pd=1.42 as=0.0441 ps=0.63 w=0.42 l=0.15
X147 vss.t51 a_2678_2626# sample_clk.t0 vss.t50 sky130_fd_pr__nfet_01v8 ad=0.0693 pd=0.75 as=0.13 ps=1.46 w=0.42 l=0.15
X148 a_16821_1680# x2.x2.IN vdd.t16 vdd.t13 sky130_fd_pr__pfet_01v8_hvt ad=0.122 pd=1.42 as=0.122 ps=1.42 w=0.42 l=0.15
X149 x2.x3.x9.output_stack CAP_CTRL_CODE3[1].t0 x2.x3.x3[1].floating vss.t40 sky130_fd_pr__nfet_01v8 ad=0.0966 pd=0.88 as=0.122 ps=1.42 w=0.42 l=0.15
X150 a_16846_3207# x2.x2.IN a_16774_3207# vss.t12 sky130_fd_pr__nfet_01v8 ad=0.122 pd=1.42 as=0.0441 ps=0.63 w=0.42 l=0.15
X151 x2.x3.IN x2.x2.x9.output_stack a_10756_3022# vss.t5 sky130_fd_pr__nfet_01v8 ad=0.122 pd=1.42 as=0.0651 ps=0.73 w=0.42 l=0.15
X152 a_2058_6116# x1.x2.D vdd.t85 vdd.t84 sky130_fd_pr__pfet_01v8_hvt ad=0.0662 pd=0.735 as=0.109 ps=1.36 w=0.42 l=0.15
X153 vdd.t57 a_2678_2626# sample_clk.t3 vdd.t56 sky130_fd_pr__pfet_01v8 ad=0.208 pd=1.59 as=0.391 ps=3.14 w=1.26 l=0.15
X154 vss.t80 a_3056_2936# a_2678_2626# vss.t79 sky130_fd_pr__nfet_01v8 ad=0.122 pd=1.42 as=0.122 ps=1.42 w=0.42 l=0.15
X155 x2.x4.x9.output_stack CAP_CTRL_CODE0[2].t1 x2.x4.x4[3].floating vss.t8 sky130_fd_pr__nfet_01v8 ad=0.0966 pd=0.88 as=0.122 ps=1.42 w=0.42 l=0.15
X156 x2.x3.x9.output_stack CAP_CTRL_CODE3[0].t0 x2.x3.x2.floating vss.t121 sky130_fd_pr__nfet_01v8 ad=0.124 pd=1.43 as=0.122 ps=1.42 w=0.42 l=0.15
X157 x2.x4.x10.Y.t1 CAP_CTRL_CODE0[3].t1 vdd.t96 vdd.t95 sky130_fd_pr__pfet_01v8_hvt ad=0.26 pd=2.52 as=0.26 ps=2.52 w=1 l=0.15
X158 a_3018_6116# a_1870_6122# a_2932_6494# vdd.t90 sky130_fd_pr__pfet_01v8_hvt ad=0.0924 pd=0.86 as=0.0567 ps=0.69 w=0.42 l=0.15
X159 x2.x4.x4[3].floating CAP_CTRL_CODE0[2].t2 x2.x4.x9.output_stack vss.t126 sky130_fd_pr__nfet_01v8 ad=0.122 pd=1.42 as=0.0966 ps=0.88 w=0.42 l=0.15
X160 a_16821_1956# x2.x2.IN a_16733_1818# vdd.t13 sky130_fd_pr__pfet_01v8_hvt ad=0.122 pd=1.42 as=0.122 ps=1.42 w=0.42 l=0.15
X161 a_11396_7121# x2.x1.IN a_11308_7259# vdd.t36 sky130_fd_pr__pfet_01v8_hvt ad=0.122 pd=1.42 as=0.122 ps=1.42 w=0.42 l=0.15
X162 a_2932_6494# a_1870_6122# a_2837_6438# vss.t92 sky130_fd_pr__nfet_01v8 ad=0.0711 pd=0.755 as=0.0935 ps=0.965 w=0.36 l=0.15
X163 x2.x3.x5[7].floating.t2 x2.x3.x10.Y.t7 x2.x3.x9.output_stack vdd.t9 sky130_fd_pr__pfet_01v8 ad=0.122 pd=1.42 as=0.101 ps=0.9 w=0.42 l=0.15
X164 a_4662_6008# x3.A a_4574_6008# vss.t63 sky130_fd_pr__nfet_01v8 ad=0.0441 pd=0.63 as=0.122 ps=1.42 w=0.42 l=0.15
X165 a_11443_5870# x2.x1.IN a_11371_6008# vss.t28 sky130_fd_pr__nfet_01v8 ad=0.122 pd=1.42 as=0.0441 ps=0.63 w=0.42 l=0.15
X166 vdd.t48 a_2325_6090# a_2235_6116# vdd.t47 sky130_fd_pr__pfet_01v8_hvt ad=0.0798 pd=0.8 as=0.0945 ps=0.87 w=0.42 l=0.15
X167 x2.x1.x9.output_stack x2.x1.x10.Y.t8 x2.x1.x5[7].floating.t1 vdd.t10 sky130_fd_pr__pfet_01v8 ad=0.101 pd=0.9 as=0.122 ps=1.42 w=0.42 l=0.15
X168 a_10137_4035# x2.x3.IN a_10065_4173# vss.t111 sky130_fd_pr__nfet_01v8 ad=0.122 pd=1.42 as=0.0441 ps=0.63 w=0.42 l=0.15
X169 x2.x3.x7.floating sample_delay_offset.t7 x2.x3.x9.output_stack vss.t26 sky130_fd_pr__nfet_01v8 ad=0.122 pd=1.42 as=0.122 ps=1.42 w=0.42 l=0.15
X170 vss.t29 x2.x1.IN a_10472_6534# vdd.t35 sky130_fd_pr__pfet_01v8_hvt ad=0.0693 pd=0.75 as=0.0651 ps=0.73 w=0.42 l=0.15
X171 a_10137_3207# x2.x3.IN a_10065_3345# vss.t111 sky130_fd_pr__nfet_01v8 ad=0.122 pd=1.42 as=0.0441 ps=0.63 w=0.42 l=0.15
X172 x2.x1.x10.Y.t1 CAP_CTRL_CODE1[3].t1 vss.t84 vss.t83 sky130_fd_pr__nfet_01v8 ad=0.169 pd=1.82 as=0.169 ps=1.82 w=0.65 l=0.15
X173 a_3041_6494# a_1704_6122# a_2932_6494# vss.t130 sky130_fd_pr__nfet_01v8 ad=0.066 pd=0.745 as=0.0711 ps=0.755 w=0.36 l=0.15
X174 x2.x4.x9.output_stack x3.A a_4599_6983# vdd.t74 sky130_fd_pr__pfet_01v8_hvt ad=0.122 pd=1.42 as=0.122 ps=1.42 w=0.42 l=0.15
X175 x2.x1.x2.floating CAP_CTRL_CODE1[0].t0 x2.x1.x9.output_stack vss.t103 sky130_fd_pr__nfet_01v8 ad=0.122 pd=1.42 as=0.124 ps=1.43 w=0.42 l=0.15
X176 a_4734_5594# x3.A a_4662_5732# vss.t64 sky130_fd_pr__nfet_01v8 ad=0.122 pd=1.42 as=0.0441 ps=0.63 w=0.42 l=0.15
X177 x2.x2.x9.output_stack CAP_CTRL_CODE2[2].t3 x2.x2.x4[3].floating vss.t54 sky130_fd_pr__nfet_01v8 ad=0.0966 pd=0.88 as=0.122 ps=1.42 w=0.42 l=0.15
X178 a_16846_3483# x2.x2.IN a_16774_3621# vss.t12 sky130_fd_pr__nfet_01v8 ad=0.122 pd=1.42 as=0.0441 ps=0.63 w=0.42 l=0.15
X179 x2.x2.x9.output_stack x2.x2.x10.Y.t5 x2.x2.x5[7].floating.t4 vdd.t115 sky130_fd_pr__pfet_01v8 ad=0.101 pd=0.9 as=0.122 ps=1.42 w=0.42 l=0.15
X180 x2.x3.IN x2.x2.x9.output_stack a_10756_2819# vdd.t7 sky130_fd_pr__pfet_01v8_hvt ad=0.122 pd=1.42 as=0.0651 ps=0.73 w=0.42 l=0.15
X181 a_10756_3022# x2.x3.IN vdd.t111 vss.t115 sky130_fd_pr__nfet_01v8 ad=0.0651 pd=0.73 as=0.0693 ps=0.75 w=0.42 l=0.15
X182 a_2151_6116# a_1704_6122# a_2058_6116# vss.t129 sky130_fd_pr__nfet_01v8 ad=0.0684 pd=0.74 as=0.066 ps=0.745 w=0.36 l=0.15
X183 vss.t14 x2.x2.IN a_17181_6534# vdd.t15 sky130_fd_pr__pfet_01v8_hvt ad=0.0693 pd=0.75 as=0.0651 ps=0.73 w=0.42 l=0.15
X184 vdd.t27 x1.x4.Y a_2619_6316# vdd.t26 sky130_fd_pr__pfet_01v8_hvt ad=0.154 pd=1.34 as=0.166 ps=1.8 w=0.64 l=0.15
X185 a_10065_4035# x2.x3.IN a_9977_3897# vss.t113 sky130_fd_pr__nfet_01v8 ad=0.0441 pd=0.63 as=0.122 ps=1.42 w=0.42 l=0.15
X186 x2.x3.x6.floating x2.x3.x6.SW x2.x3.x9.output_stack vdd.t51 sky130_fd_pr__pfet_01v8 ad=0.122 pd=1.42 as=0.122 ps=1.42 w=0.42 l=0.15
X187 a_10065_3207# x2.x3.IN x2.x3.x9.output_stack vss.t113 sky130_fd_pr__nfet_01v8 ad=0.0441 pd=0.63 as=0.122 ps=1.42 w=0.42 l=0.15
X188 vdd.t129 x7.A x7.Y vdd.t11 sky130_fd_pr__pfet_01v8_hvt ad=0.26 pd=2.52 as=0.26 ps=2.52 w=1 l=0.15
X189 vdd.t34 x2.x1.IN a_11308_7535# vdd.t33 sky130_fd_pr__pfet_01v8_hvt ad=0.122 pd=1.42 as=0.122 ps=1.42 w=0.42 l=0.15
X190 vss.t25 x1.x4.Y a_2619_6316# vss.t24 sky130_fd_pr__nfet_01v8 ad=0.097 pd=0.975 as=0.109 ps=1.36 w=0.42 l=0.15
X191 x2.x4.x9.output_stack x2.x4.x10.Y.t6 x2.x4.x5[7].floating.t3 vdd.t18 sky130_fd_pr__pfet_01v8 ad=0.101 pd=0.9 as=0.122 ps=1.42 w=0.42 l=0.15
X192 a_10112_1956# x2.x3.IN a_10024_2094# vdd.t110 sky130_fd_pr__pfet_01v8_hvt ad=0.122 pd=1.42 as=0.122 ps=1.42 w=0.42 l=0.15
X193 vdd.t54 a_2678_2006# sample_clk_b.t4 vdd.t52 sky130_fd_pr__pfet_01v8 ad=0.391 pd=3.14 as=0.208 ps=1.59 w=1.26 l=0.15
X194 a_2790_6116# a_2325_6090# vdd.t46 vdd.t45 sky130_fd_pr__pfet_01v8_hvt ad=0.174 pd=1.41 as=0.225 ps=1.38 w=0.84 l=0.15
X195 x2.x4.x5[7].floating.t2 x2.x4.x10.Y.t7 x2.x4.x9.output_stack vdd.t18 sky130_fd_pr__pfet_01v8 ad=0.122 pd=1.42 as=0.101 ps=0.9 w=0.42 l=0.15
X196 x2.x2.x6.SW sample_delay_offset.t8 vss.t97 vss.t96 sky130_fd_pr__nfet_01v8 ad=0.169 pd=1.82 as=0.169 ps=1.82 w=0.65 l=0.15
X197 a_4687_7121# x3.A a_4599_7259# vdd.t73 sky130_fd_pr__pfet_01v8_hvt ad=0.122 pd=1.42 as=0.122 ps=1.42 w=0.42 l=0.15
X198 vss.t23 x2.x3.x9.output_stack a_4047_3022# vss.t22 sky130_fd_pr__nfet_01v8 ad=0.122 pd=1.42 as=0.122 ps=1.42 w=0.42 l=0.15
X199 x2.x2.x5[7].floating.t3 x2.x2.x10.Y.t6 x2.x2.x9.output_stack vdd.t114 sky130_fd_pr__pfet_01v8 ad=0.122 pd=1.42 as=0.101 ps=0.9 w=0.42 l=0.15
X200 x3.A a_3813_6132# vss.t100 vss.t99 sky130_fd_pr__nfet_01v8 ad=0.169 pd=1.82 as=0.097 ps=0.975 w=0.65 l=0.15
X201 a_4734_5870# x3.A a_4662_6008# vss.t64 sky130_fd_pr__nfet_01v8 ad=0.122 pd=1.42 as=0.0441 ps=0.63 w=0.42 l=0.15
X202 vss.t108 CAP_CTRL_CODE3[3].t1 x2.x3.x10.Y.t0 vss.t107 sky130_fd_pr__nfet_01v8 ad=0.169 pd=1.82 as=0.169 ps=1.82 w=0.65 l=0.15
X203 x2.x3.x9.output_stack CAP_CTRL_CODE3[2].t2 x2.x3.x4[3].floating vss.t104 sky130_fd_pr__nfet_01v8 ad=0.0966 pd=0.88 as=0.122 ps=1.42 w=0.42 l=0.15
X204 a_16821_2232# x2.x2.IN x2.x2.x9.output_stack vdd.t13 sky130_fd_pr__pfet_01v8_hvt ad=0.122 pd=1.42 as=0.122 ps=1.42 w=0.42 l=0.15
X205 a_2837_6438# a_2325_6090# vss.t37 vss.t36 sky130_fd_pr__nfet_01v8 ad=0.0935 pd=0.965 as=0.166 ps=1.8 w=0.64 l=0.15
X206 x1.x4.Y reset.t1 vss.t102 vss.t101 sky130_fd_pr__nfet_01v8 ad=0.169 pd=1.82 as=0.169 ps=1.82 w=0.65 l=0.15
X207 a_2465_6482# x1.x3.Y vss.t19 vss.t18 sky130_fd_pr__nfet_01v8 ad=0.101 pd=0.99 as=0.084 ps=0.82 w=0.42 l=0.15
X208 x1.x2.D a_3106_6090# vdd.t63 vdd.t62 sky130_fd_pr__pfet_01v8_hvt ad=0.26 pd=2.52 as=0.154 ps=1.34 w=1 l=0.15
X209 x2.x3.x4[3].floating CAP_CTRL_CODE3[2].t3 x2.x3.x9.output_stack vss.t120 sky130_fd_pr__nfet_01v8 ad=0.122 pd=1.42 as=0.0966 ps=0.88 w=0.42 l=0.15
X210 vss.t10 x7.Y a_3553_3025# vss.t9 sky130_fd_pr__nfet_01v8 ad=0.169 pd=1.82 as=0.0878 ps=0.92 w=0.65 l=0.15
X211 vss.t132 sample_delay_offset.t9 x2.x1.x6.SW vss.t131 sky130_fd_pr__nfet_01v8 ad=0.169 pd=1.82 as=0.169 ps=1.82 w=0.65 l=0.15
X212 x2.x1.x9.output_stack x2.x1.x10.Y.t9 x2.x1.x5[7].floating.t0 vdd.t10 sky130_fd_pr__pfet_01v8 ad=0.101 pd=0.9 as=0.122 ps=1.42 w=0.42 l=0.15
X213 a_10756_2819# x2.x3.IN vss.t114 vdd.t109 sky130_fd_pr__pfet_01v8_hvt ad=0.0651 pd=0.73 as=0.0693 ps=0.75 w=0.42 l=0.15
X214 a_2569_6116# a_2151_6116# a_2325_6090# vdd.t102 sky130_fd_pr__pfet_01v8_hvt ad=0.113 pd=1.11 as=0.147 ps=1.23 w=0.84 l=0.15
X215 x2.x1.x9.output_stack CAP_CTRL_CODE1[2].t2 x2.x1.x4[3].floating vss.t7 sky130_fd_pr__nfet_01v8 ad=0.0966 pd=0.88 as=0.122 ps=1.42 w=0.42 l=0.15
X216 a_16821_1680# x2.x2.IN a_16733_1818# vdd.t13 sky130_fd_pr__pfet_01v8_hvt ad=0.122 pd=1.42 as=0.122 ps=1.42 w=0.42 l=0.15
X217 vss.t46 a_2678_2006# sample_clk_b.t1 vss.t45 sky130_fd_pr__nfet_01v8 ad=0.13 pd=1.46 as=0.0693 ps=0.75 w=0.42 l=0.15
X218 x2.x2.x9.output_stack x2.x2.x10.Y.t7 x2.x2.x5[7].floating.t2 vdd.t86 sky130_fd_pr__pfet_01v8 ad=0.101 pd=0.9 as=0.122 ps=1.42 w=0.42 l=0.15
X219 a_16774_3897# x2.x2.IN a_16686_3897# vss.t11 sky130_fd_pr__nfet_01v8 ad=0.0441 pd=0.63 as=0.122 ps=1.42 w=0.42 l=0.15
X220 x3.Y x3.A vdd.t72 vdd.t11 sky130_fd_pr__pfet_01v8_hvt ad=0.135 pd=1.27 as=0.26 ps=2.52 w=1 l=0.15
X221 x2.x2.x3[1].floating CAP_CTRL_CODE2[1].t1 x2.x2.x9.output_stack vss.t49 sky130_fd_pr__nfet_01v8 ad=0.122 pd=1.42 as=0.0966 ps=0.88 w=0.42 l=0.15
X222 vss.t57 a_3106_6090# a_3813_6132# vss.t56 sky130_fd_pr__nfet_01v8 ad=0.097 pd=0.975 as=0.109 ps=1.36 w=0.42 l=0.15
X223 x2.x4.x5[7].floating.t1 x2.x4.x10.Y.t8 x2.x4.x9.output_stack vdd.t18 sky130_fd_pr__pfet_01v8 ad=0.122 pd=1.42 as=0.101 ps=0.9 w=0.42 l=0.15
X224 x2.x3.x9.output_stack x2.x3.x10.Y.t8 x2.x3.x5[7].floating.t1 vdd.t9 sky130_fd_pr__pfet_01v8 ad=0.101 pd=0.9 as=0.122 ps=1.42 w=0.42 l=0.15
X225 a_10065_3621# x2.x3.IN a_9977_3621# vss.t113 sky130_fd_pr__nfet_01v8 ad=0.0441 pd=0.63 as=0.122 ps=1.42 w=0.42 l=0.15
X226 vdd.t24 x2.x3.x9.output_stack a_4047_2819# vdd.t23 sky130_fd_pr__pfet_01v8_hvt ad=0.122 pd=1.42 as=0.122 ps=1.42 w=0.42 l=0.15
X227 x2.x3.x5[7].floating.t0 x2.x3.x10.Y.t9 x2.x3.x9.output_stack vdd.t9 sky130_fd_pr__pfet_01v8 ad=0.122 pd=1.42 as=0.101 ps=0.9 w=0.42 l=0.15
X228 vdd.t5 x3.Y a_3056_2936# vdd.t4 sky130_fd_pr__pfet_01v8 ad=0.406 pd=3.38 as=0.406 ps=3.38 w=1.4 l=0.15
X229 a_10472_6193# x2.x4.x9.output_stack x2.x1.IN vss.t117 sky130_fd_pr__nfet_01v8 ad=0.0651 pd=0.73 as=0.122 ps=1.42 w=0.42 l=0.15