* NGSPICE file created from hgu_cdac_half_flat.ext - technology: sky130A

.subckt hgu_cdac_half_flat tu tub
X0 hgu_inverter_1.VSS a_20359_5189# hgu_cdac_8bit_array_2.drv<63:0> hgu_inverter_1.VSS sky130_fd_pr__nfet_01v8_lvt ad=0.0609 pd=0.71 as=0.0609 ps=0.71 w=0.42 l=0.35
X1 inv_8_test_0/inv_4_test_1/inv_2_test_1/x2.VREF a_3540_5180# hgu_cdac_8bit_array_2.drv<7:0> inv_8_test_0/inv_4_test_1/inv_2_test_1/x2.VDD sky130_fd_pr__pfet_01v8_lvt ad=0.244 pd=2.26 as=0.122 ps=1.13 w=0.84 l=0.35
X2 hgu_cdac_8bit_array_2.drv<31:0> a_15263_5235# inv_32_test_1/inv_16_test_1/inv_8_test_1/inv_4_test_1/inv_2_test_1/x2.VREF inv_32_test_1/inv_16_test_1/inv_8_test_1/inv_4_test_1/inv_2_test_1/x2.VDD sky130_fd_pr__pfet_01v8_lvt ad=0.122 pd=1.13 as=0.122 ps=1.13 w=0.84 l=0.35
X3 hgu_inverter_1.VSS a_20359_5189# hgu_cdac_8bit_array_2.drv<63:0> hgu_inverter_1.VSS sky130_fd_pr__nfet_01v8_lvt ad=0.0609 pd=0.71 as=0.0609 ps=0.71 w=0.42 l=0.35
X4 inv_32_test_0/inv_16_test_1/inv_8_test_1/inv_4_test_1/inv_2_test_1/x2.VREF a_10713_5389# hgu_cdac_8bit_array_3.drv<31:0> inv_32_test_0/inv_16_test_1/inv_8_test_1/inv_4_test_1/inv_2_test_1/x2.VDD sky130_fd_pr__pfet_01v8_lvt ad=0.122 pd=1.13 as=0.122 ps=1.13 w=0.84 l=0.35
X5 hgu_cdac_8bit_array_3.drv<63:0> a_29809_5455# hgu_inverter_1.VSS hgu_inverter_1.VSS sky130_fd_pr__nfet_01v8_lvt ad=0.0609 pd=0.71 as=0.0609 ps=0.71 w=0.42 l=0.35
X6 inv_64_test_0/inv_32_test_2/inv_16_test_1/inv_8_test_1/inv_4_test_1/inv_2_test_1/x2.VREF a_29809_5455# hgu_cdac_8bit_array_3.drv<63:0> inv_64_test_0/inv_32_test_2/inv_16_test_1/inv_8_test_1/inv_4_test_1/inv_2_test_1/x2.VDD sky130_fd_pr__pfet_01v8_lvt ad=0.122 pd=1.13 as=0.122 ps=1.13 w=0.84 l=0.35
X7 hgu_cdac_8bit_array_3.drv<31:0> a_10713_5389# inv_32_test_0/inv_16_test_1/inv_8_test_1/inv_4_test_1/inv_2_test_1/x2.VREF inv_32_test_0/inv_16_test_1/inv_8_test_1/inv_4_test_1/inv_2_test_1/x2.VDD sky130_fd_pr__pfet_01v8_lvt ad=0.122 pd=1.13 as=0.122 ps=1.13 w=0.84 l=0.35
X8 hgu_cdac_8bit_array_2.drv<63:0> a_20359_5189# inv_64_test_1/inv_32_test_2/inv_16_test_1/inv_8_test_1/inv_4_test_1/inv_2_test_1/x2.VREF inv_64_test_1/inv_32_test_2/inv_16_test_1/inv_8_test_1/inv_4_test_1/inv_2_test_1/x2.VDD sky130_fd_pr__pfet_01v8_lvt ad=0.122 pd=1.13 as=0.122 ps=1.13 w=0.84 l=0.35
X9 hgu_inverter_1.VSS a_20359_5189# hgu_cdac_8bit_array_2.drv<63:0> hgu_inverter_1.VSS sky130_fd_pr__nfet_01v8_lvt ad=0.0609 pd=0.71 as=0.0609 ps=0.71 w=0.42 l=0.35
X10 inv_32_test_1/inv_16_test_1/inv_8_test_1/inv_4_test_1/inv_2_test_1/x2.VREF a_15263_5235# hgu_cdac_8bit_array_2.drv<31:0> inv_32_test_1/inv_16_test_1/inv_8_test_1/inv_4_test_1/inv_2_test_1/x2.VDD sky130_fd_pr__pfet_01v8_lvt ad=0.122 pd=1.13 as=0.122 ps=1.13 w=0.84 l=0.35
X11 hgu_cdac_8bit_array_2.drv<63:0> a_20359_5189# inv_64_test_1/inv_32_test_2/inv_16_test_1/inv_8_test_1/inv_4_test_1/inv_2_test_1/x2.VREF inv_64_test_1/inv_32_test_2/inv_16_test_1/inv_8_test_1/inv_4_test_1/inv_2_test_1/x2.VDD sky130_fd_pr__pfet_01v8_lvt ad=0.122 pd=1.13 as=0.122 ps=1.13 w=0.84 l=0.35
X12 hgu_inverter_1.VSS a_5521_5720# hgu_cdac_8bit_array_3.drv<15:0> hgu_inverter_1.VSS sky130_fd_pr__nfet_01v8_lvt ad=0.0609 pd=0.71 as=0.0609 ps=0.71 w=0.42 l=0.35
X13 hgu_cdac_8bit_array_3.drv<63:0> a_29809_5455# hgu_inverter_1.VSS hgu_inverter_1.VSS sky130_fd_pr__nfet_01v8_lvt ad=0.0609 pd=0.71 as=0.0609 ps=0.71 w=0.42 l=0.35
X14 hgu_cdac_8bit_array_3.drv<63:0> a_29809_5455# inv_64_test_0/inv_32_test_2/inv_16_test_1/inv_8_test_1/inv_4_test_1/inv_2_test_1/x2.VREF inv_64_test_0/inv_32_test_2/inv_16_test_1/inv_8_test_1/inv_4_test_1/inv_2_test_1/x2.VDD sky130_fd_pr__pfet_01v8_lvt ad=0.122 pd=1.13 as=0.122 ps=1.13 w=0.84 l=0.35
X15 hgu_inverter_1.VSS a_8105_5185# hgu_cdac_8bit_array_2.drv<15:0> hgu_inverter_1.VSS sky130_fd_pr__nfet_01v8_lvt ad=0.0609 pd=0.71 as=0.0609 ps=0.71 w=0.42 l=0.35
X16 inv_64_test_1/inv_32_test_2/inv_16_test_1/inv_8_test_1/inv_4_test_1/inv_2_test_1/x2.VREF a_20359_5189# hgu_cdac_8bit_array_2.drv<63:0> inv_64_test_1/inv_32_test_2/inv_16_test_1/inv_8_test_1/inv_4_test_1/inv_2_test_1/x2.VDD sky130_fd_pr__pfet_01v8_lvt ad=0.122 pd=1.13 as=0.122 ps=1.13 w=0.84 l=0.35
X17 hgu_cdac_8bit_array_3.drv<31:0> a_10713_5389# inv_32_test_0/inv_16_test_1/inv_8_test_1/inv_4_test_1/inv_2_test_1/x2.VREF inv_32_test_0/inv_16_test_1/inv_8_test_1/inv_4_test_1/inv_2_test_1/x2.VDD sky130_fd_pr__pfet_01v8_lvt ad=0.122 pd=1.13 as=0.122 ps=1.13 w=0.84 l=0.35
X18 hgu_cdac_8bit_array_3.drv<7:0> a_2970_5870# inv_8_test_1/inv_4_test_1/inv_2_test_1/x2.VREF inv_8_test_1/inv_4_test_1/inv_2_test_1/x2.VDD sky130_fd_pr__pfet_01v8_lvt ad=0.122 pd=1.13 as=0.122 ps=1.13 w=0.84 l=0.35
X19 hgu_cdac_8bit_array_2.drv<63:0> a_20359_5189# hgu_inverter_1.VSS hgu_inverter_1.VSS sky130_fd_pr__nfet_01v8_lvt ad=0.0609 pd=0.71 as=0.0609 ps=0.71 w=0.42 l=0.35
X20 hgu_inverter_1.VSS a_29809_5455# hgu_cdac_8bit_array_3.drv<63:0> hgu_inverter_1.VSS sky130_fd_pr__nfet_01v8_lvt ad=0.0609 pd=0.71 as=0.0609 ps=0.71 w=0.42 l=0.35
X21 hgu_cdac_8bit_array_2.drv<63:0> a_20359_5189# inv_64_test_1/inv_32_test_2/inv_16_test_1/inv_8_test_1/inv_4_test_1/inv_2_test_1/x2.VREF inv_64_test_1/inv_32_test_2/inv_16_test_1/inv_8_test_1/inv_4_test_1/inv_2_test_1/x2.VDD sky130_fd_pr__pfet_01v8_lvt ad=0.122 pd=1.13 as=0.122 ps=1.13 w=0.84 l=0.35
X22 hgu_cdac_8bit_array_2.drv<1:0> a_657_5185# hgu_inverter_1.VSS hgu_inverter_1.VSS sky130_fd_pr__nfet_01v8_lvt ad=0.0609 pd=0.71 as=0.122 ps=1.42 w=0.42 l=0.35
X23 hgu_inverter_1.VSS a_10713_5389# hgu_cdac_8bit_array_3.drv<31:0> hgu_inverter_1.VSS sky130_fd_pr__nfet_01v8_lvt ad=0.0609 pd=0.71 as=0.0609 ps=0.71 w=0.42 l=0.35
X24 hgu_inverter_1.VSS a_5521_5720# hgu_cdac_8bit_array_3.drv<15:0> hgu_inverter_1.VSS sky130_fd_pr__nfet_01v8_lvt ad=0.0609 pd=0.71 as=0.0609 ps=0.71 w=0.42 l=0.35
X25 hgu_cdac_8bit_array_3.drv<63:0> a_29809_5455# inv_64_test_0/inv_32_test_2/inv_16_test_1/inv_8_test_1/inv_4_test_1/inv_2_test_1/x2.VREF inv_64_test_0/inv_32_test_2/inv_16_test_1/inv_8_test_1/inv_4_test_1/inv_2_test_1/x2.VDD sky130_fd_pr__pfet_01v8_lvt ad=0.122 pd=1.13 as=0.122 ps=1.13 w=0.84 l=0.35
X26 hgu_cdac_8bit_array_3.drv<63:0> a_29809_5455# hgu_inverter_1.VSS hgu_inverter_1.VSS sky130_fd_pr__nfet_01v8_lvt ad=0.0609 pd=0.71 as=0.0609 ps=0.71 w=0.42 l=0.35
X27 inv_64_test_1/inv_32_test_2/inv_16_test_1/inv_8_test_1/inv_4_test_1/inv_2_test_1/x2.VREF a_20359_5189# hgu_cdac_8bit_array_2.drv<63:0> inv_64_test_1/inv_32_test_2/inv_16_test_1/inv_8_test_1/inv_4_test_1/inv_2_test_1/x2.VDD sky130_fd_pr__pfet_01v8_lvt ad=0.122 pd=1.13 as=0.122 ps=1.13 w=0.84 l=0.35
X28 hgu_cdac_8bit_array_2.drv<7:0> a_3540_5180# hgu_inverter_1.VSS hgu_inverter_1.VSS sky130_fd_pr__nfet_01v8_lvt ad=0.0609 pd=0.71 as=0.0609 ps=0.71 w=0.42 l=0.35
X29 hgu_cdac_8bit_array_2.drv<63:0> a_20359_5189# hgu_inverter_1.VSS hgu_inverter_1.VSS sky130_fd_pr__nfet_01v8_lvt ad=0.0609 pd=0.71 as=0.0609 ps=0.71 w=0.42 l=0.35
X30 inv_16_test_0/inv_8_test_1/inv_4_test_1/inv_2_test_1/x2.VREF a_8105_5185# hgu_cdac_8bit_array_2.drv<15:0> inv_16_test_0/inv_8_test_1/inv_4_test_1/inv_2_test_1/x2.VDD sky130_fd_pr__pfet_01v8_lvt ad=0.122 pd=1.13 as=0.122 ps=1.13 w=0.84 l=0.35
X31 hgu_cdac_8bit_array_3.drv<7:0> a_2970_5870# inv_8_test_1/inv_4_test_1/inv_2_test_1/x2.VREF inv_8_test_1/inv_4_test_1/inv_2_test_1/x2.VDD sky130_fd_pr__pfet_01v8_lvt ad=0.122 pd=1.13 as=0.122 ps=1.13 w=0.84 l=0.35
X32 hgu_cdac_8bit_array_3.drv<31:0> a_10713_5389# inv_32_test_0/inv_16_test_1/inv_8_test_1/inv_4_test_1/inv_2_test_1/x2.VREF inv_32_test_0/inv_16_test_1/inv_8_test_1/inv_4_test_1/inv_2_test_1/x2.VDD sky130_fd_pr__pfet_01v8_lvt ad=0.122 pd=1.13 as=0.122 ps=1.13 w=0.84 l=0.35
X33 hgu_cdac_8bit_array_2.drv<63:0> a_20359_5189# inv_64_test_1/inv_32_test_2/inv_16_test_1/inv_8_test_1/inv_4_test_1/inv_2_test_1/x2.VREF inv_64_test_1/inv_32_test_2/inv_16_test_1/inv_8_test_1/inv_4_test_1/inv_2_test_1/x2.VDD sky130_fd_pr__pfet_01v8_lvt ad=0.122 pd=1.13 as=0.122 ps=1.13 w=0.84 l=0.35
X34 hgu_cdac_8bit_array_3.drv<15:0> a_5521_5720# inv_16_test_1/inv_8_test_1/inv_4_test_1/inv_2_test_1/x2.VREF inv_16_test_1/inv_8_test_1/inv_4_test_1/inv_2_test_1/x2.VDD sky130_fd_pr__pfet_01v8_lvt ad=0.122 pd=1.13 as=0.122 ps=1.13 w=0.84 l=0.35
X35 hgu_cdac_8bit_array_3.drv<63:0> a_29809_5455# hgu_inverter_1.VSS hgu_inverter_1.VSS sky130_fd_pr__nfet_01v8_lvt ad=0.0609 pd=0.71 as=0.0609 ps=0.71 w=0.42 l=0.35
X36 inv_16_test_1/inv_8_test_1/inv_4_test_1/inv_2_test_1/x2.VREF a_5521_5720# hgu_cdac_8bit_array_3.drv<15:0> inv_16_test_1/inv_8_test_1/inv_4_test_1/inv_2_test_1/x2.VDD sky130_fd_pr__pfet_01v8_lvt ad=0.122 pd=1.13 as=0.122 ps=1.13 w=0.84 l=0.35
X37 hgu_cdac_8bit_array_2.drv<31:0> a_15263_5235# hgu_inverter_1.VSS hgu_inverter_1.VSS sky130_fd_pr__nfet_01v8_lvt ad=0.0609 pd=0.71 as=0.0609 ps=0.71 w=0.42 l=0.35
X38 hgu_cdac_8bit_array_2.drv<63:0> a_20359_5189# hgu_inverter_1.VSS hgu_inverter_1.VSS sky130_fd_pr__nfet_01v8_lvt ad=0.0609 pd=0.71 as=0.0609 ps=0.71 w=0.42 l=0.35
X39 hgu_inverter_1.VSS a_29809_5455# hgu_cdac_8bit_array_3.drv<63:0> hgu_inverter_1.VSS sky130_fd_pr__nfet_01v8_lvt ad=0.122 pd=1.42 as=0.0609 ps=0.71 w=0.42 l=0.35
X40 hgu_cdac_8bit_array_2.drv<63:0> a_20359_5189# inv_64_test_1/inv_32_test_2/inv_16_test_1/inv_8_test_1/inv_4_test_1/inv_2_test_1/x2.VREF inv_64_test_1/inv_32_test_2/inv_16_test_1/inv_8_test_1/inv_4_test_1/inv_2_test_1/x2.VDD sky130_fd_pr__pfet_01v8_lvt ad=0.122 pd=1.13 as=0.122 ps=1.13 w=0.84 l=0.35
X41 hgu_cdac_8bit_array_2.drv<7:0> a_3540_5180# inv_8_test_0/inv_4_test_1/inv_2_test_1/x2.VREF inv_8_test_0/inv_4_test_1/inv_2_test_1/x2.VDD sky130_fd_pr__pfet_01v8_lvt ad=0.122 pd=1.13 as=0.244 ps=2.26 w=0.84 l=0.35
X42 inv_64_test_0/inv_32_test_2/inv_16_test_1/inv_8_test_1/inv_4_test_1/inv_2_test_1/x2.VREF a_29809_5455# hgu_cdac_8bit_array_3.drv<63:0> inv_64_test_0/inv_32_test_2/inv_16_test_1/inv_8_test_1/inv_4_test_1/inv_2_test_1/x2.VDD sky130_fd_pr__pfet_01v8_lvt ad=0.122 pd=1.13 as=0.122 ps=1.13 w=0.84 l=0.35
X43 hgu_inverter_1.VSS a_10713_5389# hgu_cdac_8bit_array_3.drv<31:0> hgu_inverter_1.VSS sky130_fd_pr__nfet_01v8_lvt ad=0.0609 pd=0.71 as=0.0609 ps=0.71 w=0.42 l=0.35
X44 hgu_cdac_8bit_array_2.drv<1:0> a_657_5185# inv_2_test_0/x2.VREF inv_2_test_0/x2.VDD sky130_fd_pr__pfet_01v8_lvt ad=0.122 pd=1.13 as=0.244 ps=2.26 w=0.84 l=0.35
X45 hgu_cdac_8bit_array_3.drv<63:0> a_29809_5455# inv_64_test_0/inv_32_test_2/inv_16_test_1/inv_8_test_1/inv_4_test_1/inv_2_test_1/x2.VREF inv_64_test_0/inv_32_test_2/inv_16_test_1/inv_8_test_1/inv_4_test_1/inv_2_test_1/x2.VDD sky130_fd_pr__pfet_01v8_lvt ad=0.122 pd=1.13 as=0.122 ps=1.13 w=0.84 l=0.35
X46 inv_32_test_0/inv_16_test_1/inv_8_test_1/inv_4_test_1/inv_2_test_1/x2.VREF a_10713_5389# hgu_cdac_8bit_array_3.drv<31:0> inv_32_test_0/inv_16_test_1/inv_8_test_1/inv_4_test_1/inv_2_test_1/x2.VDD sky130_fd_pr__pfet_01v8_lvt ad=0.122 pd=1.13 as=0.122 ps=1.13 w=0.84 l=0.35
X47 hgu_inverter_1.VSS a_20359_5189# hgu_cdac_8bit_array_2.drv<63:0> hgu_inverter_1.VSS sky130_fd_pr__nfet_01v8_lvt ad=0.0609 pd=0.71 as=0.0609 ps=0.71 w=0.42 l=0.35
X48 hgu_cdac_8bit_array_3.drv<63:0> a_29809_5455# hgu_inverter_1.VSS hgu_inverter_1.VSS sky130_fd_pr__nfet_01v8_lvt ad=0.0609 pd=0.71 as=0.0609 ps=0.71 w=0.42 l=0.35
X49 hgu_cdac_8bit_array_2.drv<31:0> a_15263_5235# hgu_inverter_1.VSS hgu_inverter_1.VSS sky130_fd_pr__nfet_01v8_lvt ad=0.0609 pd=0.71 as=0.0609 ps=0.71 w=0.42 l=0.35
X50 hgu_cdac_8bit_array_3.drv<63:0> a_29809_5455# inv_64_test_0/inv_32_test_2/inv_16_test_1/inv_8_test_1/inv_4_test_1/inv_2_test_1/x2.VREF inv_64_test_0/inv_32_test_2/inv_16_test_1/inv_8_test_1/inv_4_test_1/inv_2_test_1/x2.VDD sky130_fd_pr__pfet_01v8_lvt ad=0.122 pd=1.13 as=0.122 ps=1.13 w=0.84 l=0.35
X51 inv_4_test_2/inv_2_test_1/x2.VREF a_1437_5881# hgu_cdac_8bit_array_3.drv<3:0> inv_4_test_2/inv_2_test_1/x2.VDD sky130_fd_pr__pfet_01v8_lvt ad=0.244 pd=2.26 as=0.122 ps=1.13 w=0.84 l=0.35
X52 hgu_cdac_8bit_array_2.drv<31:0> a_15263_5235# inv_32_test_1/inv_16_test_1/inv_8_test_1/inv_4_test_1/inv_2_test_1/x2.VREF inv_32_test_1/inv_16_test_1/inv_8_test_1/inv_4_test_1/inv_2_test_1/x2.VDD sky130_fd_pr__pfet_01v8_lvt ad=0.122 pd=1.13 as=0.122 ps=1.13 w=0.84 l=0.35
X53 hgu_inverter_1.VSS a_29809_5455# hgu_cdac_8bit_array_3.drv<63:0> hgu_inverter_1.VSS sky130_fd_pr__nfet_01v8_lvt ad=0.0609 pd=0.71 as=0.0609 ps=0.71 w=0.42 l=0.35
X54 hgu_cdac_8bit_array_2.drv<63:0> a_20359_5189# inv_64_test_1/inv_32_test_2/inv_16_test_1/inv_8_test_1/inv_4_test_1/inv_2_test_1/x2.VREF inv_64_test_1/inv_32_test_2/inv_16_test_1/inv_8_test_1/inv_4_test_1/inv_2_test_1/x2.VDD sky130_fd_pr__pfet_01v8_lvt ad=0.122 pd=1.13 as=0.122 ps=1.13 w=0.84 l=0.35
X55 hgu_inverter_1.VSS a_20359_5189# hgu_cdac_8bit_array_2.drv<63:0> hgu_inverter_1.VSS sky130_fd_pr__nfet_01v8_lvt ad=0.0609 pd=0.71 as=0.0609 ps=0.71 w=0.42 l=0.35
X56 inv_64_test_0/inv_32_test_2/inv_16_test_1/inv_8_test_1/inv_4_test_1/inv_2_test_1/x2.VREF a_29809_5455# hgu_cdac_8bit_array_3.drv<63:0> inv_64_test_0/inv_32_test_2/inv_16_test_1/inv_8_test_1/inv_4_test_1/inv_2_test_1/x2.VDD sky130_fd_pr__pfet_01v8_lvt ad=0.244 pd=2.26 as=0.122 ps=1.13 w=0.84 l=0.35
X57 hgu_inverter_1.VSS a_5521_5720# hgu_cdac_8bit_array_3.drv<15:0> hgu_inverter_1.VSS sky130_fd_pr__nfet_01v8_lvt ad=0.0609 pd=0.71 as=0.0609 ps=0.71 w=0.42 l=0.35
X58 hgu_cdac_8bit_array_3.drv<31:0> a_10713_5389# inv_32_test_0/inv_16_test_1/inv_8_test_1/inv_4_test_1/inv_2_test_1/x2.VREF inv_32_test_0/inv_16_test_1/inv_8_test_1/inv_4_test_1/inv_2_test_1/x2.VDD sky130_fd_pr__pfet_01v8_lvt ad=0.122 pd=1.13 as=0.122 ps=1.13 w=0.84 l=0.35
X59 hgu_inverter_1.VSS a_20359_5189# hgu_cdac_8bit_array_2.drv<63:0> hgu_inverter_1.VSS sky130_fd_pr__nfet_01v8_lvt ad=0.0609 pd=0.71 as=0.0609 ps=0.71 w=0.42 l=0.35
X60 hgu_cdac_8bit_array_2.drv<3:0> a_1921_5185# hgu_inverter_1.VSS hgu_inverter_1.VSS sky130_fd_pr__nfet_01v8_lvt ad=0.0609 pd=0.71 as=0.0609 ps=0.71 w=0.42 l=0.35
X61 inv_32_test_0/inv_16_test_1/inv_8_test_1/inv_4_test_1/inv_2_test_1/x2.VREF a_10713_5389# hgu_cdac_8bit_array_3.drv<31:0> inv_32_test_0/inv_16_test_1/inv_8_test_1/inv_4_test_1/inv_2_test_1/x2.VDD sky130_fd_pr__pfet_01v8_lvt ad=0.122 pd=1.13 as=0.122 ps=1.13 w=0.84 l=0.35
X62 hgu_cdac_8bit_array_3.drv<63:0> a_29809_5455# hgu_inverter_1.VSS hgu_inverter_1.VSS sky130_fd_pr__nfet_01v8_lvt ad=0.0609 pd=0.71 as=0.0609 ps=0.71 w=0.42 l=0.35
X63 inv_64_test_1/inv_32_test_2/inv_16_test_1/inv_8_test_1/inv_4_test_1/inv_2_test_1/x2.VREF a_20359_5189# hgu_cdac_8bit_array_2.drv<63:0> inv_64_test_1/inv_32_test_2/inv_16_test_1/inv_8_test_1/inv_4_test_1/inv_2_test_1/x2.VDD sky130_fd_pr__pfet_01v8_lvt ad=0.122 pd=1.13 as=0.122 ps=1.13 w=0.84 l=0.35
X64 hgu_cdac_8bit_array_3.drv<63:0> a_29809_5455# inv_64_test_0/inv_32_test_2/inv_16_test_1/inv_8_test_1/inv_4_test_1/inv_2_test_1/x2.VREF inv_64_test_0/inv_32_test_2/inv_16_test_1/inv_8_test_1/inv_4_test_1/inv_2_test_1/x2.VDD sky130_fd_pr__pfet_01v8_lvt ad=0.122 pd=1.13 as=0.122 ps=1.13 w=0.84 l=0.35
X65 inv_16_test_1/inv_8_test_1/inv_4_test_1/inv_2_test_1/x2.VREF a_5521_5720# hgu_cdac_8bit_array_3.drv<15:0> inv_16_test_1/inv_8_test_1/inv_4_test_1/inv_2_test_1/x2.VDD sky130_fd_pr__pfet_01v8_lvt ad=0.122 pd=1.13 as=0.122 ps=1.13 w=0.84 l=0.35
X66 hgu_cdac_8bit_array_2.drv<31:0> a_15263_5235# inv_32_test_1/inv_16_test_1/inv_8_test_1/inv_4_test_1/inv_2_test_1/x2.VREF inv_32_test_1/inv_16_test_1/inv_8_test_1/inv_4_test_1/inv_2_test_1/x2.VDD sky130_fd_pr__pfet_01v8_lvt ad=0.122 pd=1.13 as=0.122 ps=1.13 w=0.84 l=0.35
X67 inv_64_test_1/inv_32_test_2/inv_16_test_1/inv_8_test_1/inv_4_test_1/inv_2_test_1/x2.VREF a_20359_5189# hgu_cdac_8bit_array_2.drv<63:0> inv_64_test_1/inv_32_test_2/inv_16_test_1/inv_8_test_1/inv_4_test_1/inv_2_test_1/x2.VDD sky130_fd_pr__pfet_01v8_lvt ad=0.122 pd=1.13 as=0.122 ps=1.13 w=0.84 l=0.35
X68 inv_64_test_0/inv_32_test_2/inv_16_test_1/inv_8_test_1/inv_4_test_1/inv_2_test_1/x2.VREF a_29809_5455# hgu_cdac_8bit_array_3.drv<63:0> inv_64_test_0/inv_32_test_2/inv_16_test_1/inv_8_test_1/inv_4_test_1/inv_2_test_1/x2.VDD sky130_fd_pr__pfet_01v8_lvt ad=0.122 pd=1.13 as=0.122 ps=1.13 w=0.84 l=0.35
X69 hgu_cdac_8bit_array_2.drv<31:0> a_15263_5235# hgu_inverter_1.VSS hgu_inverter_1.VSS sky130_fd_pr__nfet_01v8_lvt ad=0.0609 pd=0.71 as=0.0609 ps=0.71 w=0.42 l=0.35
X70 hgu_cdac_8bit_array_2.drv<63:0> a_20359_5189# hgu_inverter_1.VSS hgu_inverter_1.VSS sky130_fd_pr__nfet_01v8_lvt ad=0.0609 pd=0.71 as=0.122 ps=1.42 w=0.42 l=0.35
X71 hgu_cdac_8bit_array_2.drv<63:0> a_20359_5189# hgu_inverter_1.VSS hgu_inverter_1.VSS sky130_fd_pr__nfet_01v8_lvt ad=0.0609 pd=0.71 as=0.0609 ps=0.71 w=0.42 l=0.35
X72 hgu_cdac_8bit_array_3.drv<31:0> a_10713_5389# hgu_inverter_1.VSS hgu_inverter_1.VSS sky130_fd_pr__nfet_01v8_lvt ad=0.0609 pd=0.71 as=0.0609 ps=0.71 w=0.42 l=0.35
X73 hgu_cdac_8bit_array_3.drv<15:0> a_5521_5720# hgu_inverter_1.VSS hgu_inverter_1.VSS sky130_fd_pr__nfet_01v8_lvt ad=0.0609 pd=0.71 as=0.122 ps=1.42 w=0.42 l=0.35
X74 hgu_cdac_8bit_array_2.drv<3:0> a_1921_5185# inv_4_test_1/inv_2_test_1/x2.VREF inv_4_test_1/inv_2_test_1/x2.VDD sky130_fd_pr__pfet_01v8_lvt ad=0.122 pd=1.13 as=0.122 ps=1.13 w=0.84 l=0.35
X75 hgu_cdac_8bit_array_3.drv<63:0> a_29809_5455# hgu_inverter_1.VSS hgu_inverter_1.VSS sky130_fd_pr__nfet_01v8_lvt ad=0.0609 pd=0.71 as=0.0609 ps=0.71 w=0.42 l=0.35
X76 inv_64_test_1/inv_32_test_2/inv_16_test_1/inv_8_test_1/inv_4_test_1/inv_2_test_1/x2.VREF a_20359_5189# hgu_cdac_8bit_array_2.drv<63:0> inv_64_test_1/inv_32_test_2/inv_16_test_1/inv_8_test_1/inv_4_test_1/inv_2_test_1/x2.VDD sky130_fd_pr__pfet_01v8_lvt ad=0.122 pd=1.13 as=0.122 ps=1.13 w=0.84 l=0.35
X77 inv_16_test_1/inv_8_test_1/inv_4_test_1/inv_2_test_1/x2.VREF a_5521_5720# hgu_cdac_8bit_array_3.drv<15:0> inv_16_test_1/inv_8_test_1/inv_4_test_1/inv_2_test_1/x2.VDD sky130_fd_pr__pfet_01v8_lvt ad=0.122 pd=1.13 as=0.122 ps=1.13 w=0.84 l=0.35
X78 hgu_cdac_8bit_array_2.drv<15:0> a_8105_5185# hgu_inverter_1.VSS hgu_inverter_1.VSS sky130_fd_pr__nfet_01v8_lvt ad=0.0609 pd=0.71 as=0.0609 ps=0.71 w=0.42 l=0.35
X79 hgu_cdac_8bit_array_3.drv<63:0> a_29809_5455# inv_64_test_0/inv_32_test_2/inv_16_test_1/inv_8_test_1/inv_4_test_1/inv_2_test_1/x2.VREF inv_64_test_0/inv_32_test_2/inv_16_test_1/inv_8_test_1/inv_4_test_1/inv_2_test_1/x2.VDD sky130_fd_pr__pfet_01v8_lvt ad=0.122 pd=1.13 as=0.122 ps=1.13 w=0.84 l=0.35
X80 hgu_inverter_1.VSS a_20359_5189# hgu_cdac_8bit_array_2.drv<63:0> hgu_inverter_1.VSS sky130_fd_pr__nfet_01v8_lvt ad=0.0609 pd=0.71 as=0.0609 ps=0.71 w=0.42 l=0.35
X81 inv_64_test_1/inv_32_test_2/inv_16_test_1/inv_8_test_1/inv_4_test_1/inv_2_test_1/x2.VREF a_20359_5189# hgu_cdac_8bit_array_2.drv<63:0> inv_64_test_1/inv_32_test_2/inv_16_test_1/inv_8_test_1/inv_4_test_1/inv_2_test_1/x2.VDD sky130_fd_pr__pfet_01v8_lvt ad=0.122 pd=1.13 as=0.122 ps=1.13 w=0.84 l=0.35
X82 hgu_cdac_8bit_array_2.drv<31:0> a_15263_5235# hgu_inverter_1.VSS hgu_inverter_1.VSS sky130_fd_pr__nfet_01v8_lvt ad=0.0609 pd=0.71 as=0.0609 ps=0.71 w=0.42 l=0.35
X83 hgu_cdac_8bit_array_2.drv<63:0> a_20359_5189# hgu_inverter_1.VSS hgu_inverter_1.VSS sky130_fd_pr__nfet_01v8_lvt ad=0.0609 pd=0.71 as=0.0609 ps=0.71 w=0.42 l=0.35
X84 hgu_cdac_8bit_array_2.drv<31:0> a_15263_5235# inv_32_test_1/inv_16_test_1/inv_8_test_1/inv_4_test_1/inv_2_test_1/x2.VREF inv_32_test_1/inv_16_test_1/inv_8_test_1/inv_4_test_1/inv_2_test_1/x2.VDD sky130_fd_pr__pfet_01v8_lvt ad=0.122 pd=1.13 as=0.122 ps=1.13 w=0.84 l=0.35
X85 hgu_cdac_8bit_array_2.drv<63:0> a_20359_5189# inv_64_test_1/inv_32_test_2/inv_16_test_1/inv_8_test_1/inv_4_test_1/inv_2_test_1/x2.VREF inv_64_test_1/inv_32_test_2/inv_16_test_1/inv_8_test_1/inv_4_test_1/inv_2_test_1/x2.VDD sky130_fd_pr__pfet_01v8_lvt ad=0.122 pd=1.13 as=0.122 ps=1.13 w=0.84 l=0.35
X86 hgu_cdac_8bit_array_2.drv<15:0> a_8105_5185# hgu_inverter_1.VSS hgu_inverter_1.VSS sky130_fd_pr__nfet_01v8_lvt ad=0.0609 pd=0.71 as=0.122 ps=1.42 w=0.42 l=0.35
X87 hgu_inverter_1.VSS a_29809_5455# hgu_cdac_8bit_array_3.drv<63:0> hgu_inverter_1.VSS sky130_fd_pr__nfet_01v8_lvt ad=0.0609 pd=0.71 as=0.0609 ps=0.71 w=0.42 l=0.35
X88 hgu_cdac_8bit_array_3.drv<63:0> a_29809_5455# inv_64_test_0/inv_32_test_2/inv_16_test_1/inv_8_test_1/inv_4_test_1/inv_2_test_1/x2.VREF inv_64_test_0/inv_32_test_2/inv_16_test_1/inv_8_test_1/inv_4_test_1/inv_2_test_1/x2.VDD sky130_fd_pr__pfet_01v8_lvt ad=0.122 pd=1.13 as=0.122 ps=1.13 w=0.84 l=0.35
X89 hgu_inverter_1.VSS a_20359_5189# hgu_cdac_8bit_array_2.drv<63:0> hgu_inverter_1.VSS sky130_fd_pr__nfet_01v8_lvt ad=0.0609 pd=0.71 as=0.0609 ps=0.71 w=0.42 l=0.35
X90 hgu_cdac_8bit_array_2.drv<15:0> a_8105_5185# hgu_inverter_1.VSS hgu_inverter_1.VSS sky130_fd_pr__nfet_01v8_lvt ad=0.0609 pd=0.71 as=0.0609 ps=0.71 w=0.42 l=0.35
X91 hgu_cdac_8bit_array_2.drv<15:0> a_8105_5185# inv_16_test_0/inv_8_test_1/inv_4_test_1/inv_2_test_1/x2.VREF inv_16_test_0/inv_8_test_1/inv_4_test_1/inv_2_test_1/x2.VDD sky130_fd_pr__pfet_01v8_lvt ad=0.122 pd=1.13 as=0.122 ps=1.13 w=0.84 l=0.35
X92 inv_32_test_0/inv_16_test_1/inv_8_test_1/inv_4_test_1/inv_2_test_1/x2.VREF a_10713_5389# hgu_cdac_8bit_array_3.drv<31:0> inv_32_test_0/inv_16_test_1/inv_8_test_1/inv_4_test_1/inv_2_test_1/x2.VDD sky130_fd_pr__pfet_01v8_lvt ad=0.122 pd=1.13 as=0.122 ps=1.13 w=0.84 l=0.35
X93 hgu_cdac_8bit_array_3.drv<63:0> a_29809_5455# hgu_inverter_1.VSS hgu_inverter_1.VSS sky130_fd_pr__nfet_01v8_lvt ad=0.0609 pd=0.71 as=0.0609 ps=0.71 w=0.42 l=0.35
X94 inv_8_test_0/inv_4_test_1/inv_2_test_1/x2.VREF a_3540_5180# hgu_cdac_8bit_array_2.drv<7:0> inv_8_test_0/inv_4_test_1/inv_2_test_1/x2.VDD sky130_fd_pr__pfet_01v8_lvt ad=0.122 pd=1.13 as=0.122 ps=1.13 w=0.84 l=0.35
X95 hgu_cdac_8bit_array_2.drv<63:0> a_20359_5189# hgu_inverter_1.VSS hgu_inverter_1.VSS sky130_fd_pr__nfet_01v8_lvt ad=0.0609 pd=0.71 as=0.0609 ps=0.71 w=0.42 l=0.35
X96 hgu_cdac_8bit_array_2.drv<31:0> a_15263_5235# inv_32_test_1/inv_16_test_1/inv_8_test_1/inv_4_test_1/inv_2_test_1/x2.VREF inv_32_test_1/inv_16_test_1/inv_8_test_1/inv_4_test_1/inv_2_test_1/x2.VDD sky130_fd_pr__pfet_01v8_lvt ad=0.122 pd=1.13 as=0.122 ps=1.13 w=0.84 l=0.35
X97 hgu_cdac_8bit_array_3.drv<63:0> a_29809_5455# hgu_inverter_1.VSS hgu_inverter_1.VSS sky130_fd_pr__nfet_01v8_lvt ad=0.0609 pd=0.71 as=0.0609 ps=0.71 w=0.42 l=0.35
X98 inv_64_test_1/inv_32_test_2/inv_16_test_1/inv_8_test_1/inv_4_test_1/inv_2_test_1/x2.VREF a_20359_5189# hgu_cdac_8bit_array_2.drv<63:0> inv_64_test_1/inv_32_test_2/inv_16_test_1/inv_8_test_1/inv_4_test_1/inv_2_test_1/x2.VDD sky130_fd_pr__pfet_01v8_lvt ad=0.122 pd=1.13 as=0.122 ps=1.13 w=0.84 l=0.35
X99 inv_64_test_0/inv_32_test_2/inv_16_test_1/inv_8_test_1/inv_4_test_1/inv_2_test_1/x2.VREF a_29809_5455# hgu_cdac_8bit_array_3.drv<63:0> inv_64_test_0/inv_32_test_2/inv_16_test_1/inv_8_test_1/inv_4_test_1/inv_2_test_1/x2.VDD sky130_fd_pr__pfet_01v8_lvt ad=0.122 pd=1.13 as=0.122 ps=1.13 w=0.84 l=0.35
X100 hgu_inverter_1.VSS a_15263_5235# hgu_cdac_8bit_array_2.drv<31:0> hgu_inverter_1.VSS sky130_fd_pr__nfet_01v8_lvt ad=0.0609 pd=0.71 as=0.0609 ps=0.71 w=0.42 l=0.35
X101 hgu_cdac_8bit_array_2.drv<15:0> a_8105_5185# hgu_inverter_1.VSS hgu_inverter_1.VSS sky130_fd_pr__nfet_01v8_lvt ad=0.0609 pd=0.71 as=0.0609 ps=0.71 w=0.42 l=0.35
X102 hgu_cdac_8bit_array_2.drv<15:0> a_8105_5185# inv_16_test_0/inv_8_test_1/inv_4_test_1/inv_2_test_1/x2.VREF inv_16_test_0/inv_8_test_1/inv_4_test_1/inv_2_test_1/x2.VDD sky130_fd_pr__pfet_01v8_lvt ad=0.122 pd=1.13 as=0.244 ps=2.26 w=0.84 l=0.35
X103 hgu_cdac_8bit_array_2.drv<15:0> a_8105_5185# inv_16_test_0/inv_8_test_1/inv_4_test_1/inv_2_test_1/x2.VREF inv_16_test_0/inv_8_test_1/inv_4_test_1/inv_2_test_1/x2.VDD sky130_fd_pr__pfet_01v8_lvt ad=0.122 pd=1.13 as=0.122 ps=1.13 w=0.84 l=0.35
X104 hgu_cdac_8bit_array_3.drv<63:0> a_29809_5455# hgu_inverter_1.VSS hgu_inverter_1.VSS sky130_fd_pr__nfet_01v8_lvt ad=0.0609 pd=0.71 as=0.0609 ps=0.71 w=0.42 l=0.35
X105 hgu_cdac_8bit_array_3.drv<63:0> a_29809_5455# inv_64_test_0/inv_32_test_2/inv_16_test_1/inv_8_test_1/inv_4_test_1/inv_2_test_1/x2.VREF inv_64_test_0/inv_32_test_2/inv_16_test_1/inv_8_test_1/inv_4_test_1/inv_2_test_1/x2.VDD sky130_fd_pr__pfet_01v8_lvt ad=0.122 pd=1.13 as=0.122 ps=1.13 w=0.84 l=0.35
X106 hgu_inverter_1.VSS a_15263_5235# hgu_cdac_8bit_array_2.drv<31:0> hgu_inverter_1.VSS sky130_fd_pr__nfet_01v8_lvt ad=0.0609 pd=0.71 as=0.0609 ps=0.71 w=0.42 l=0.35
X107 hgu_inverter_1.VSS a_10713_5389# hgu_cdac_8bit_array_3.drv<31:0> hgu_inverter_1.VSS sky130_fd_pr__nfet_01v8_lvt ad=0.0609 pd=0.71 as=0.0609 ps=0.71 w=0.42 l=0.35
X108 hgu_cdac_8bit_array_3.drv<63:0> a_29809_5455# hgu_inverter_1.VSS hgu_inverter_1.VSS sky130_fd_pr__nfet_01v8_lvt ad=0.0609 pd=0.71 as=0.0609 ps=0.71 w=0.42 l=0.35
X109 inv_64_test_1/inv_32_test_2/inv_16_test_1/inv_8_test_1/inv_4_test_1/inv_2_test_1/x2.VREF a_20359_5189# hgu_cdac_8bit_array_2.drv<63:0> inv_64_test_1/inv_32_test_2/inv_16_test_1/inv_8_test_1/inv_4_test_1/inv_2_test_1/x2.VDD sky130_fd_pr__pfet_01v8_lvt ad=0.122 pd=1.13 as=0.122 ps=1.13 w=0.84 l=0.35
X110 hgu_cdac_8bit_array_3.drv<63:0> a_29809_5455# inv_64_test_0/inv_32_test_2/inv_16_test_1/inv_8_test_1/inv_4_test_1/inv_2_test_1/x2.VREF inv_64_test_0/inv_32_test_2/inv_16_test_1/inv_8_test_1/inv_4_test_1/inv_2_test_1/x2.VDD sky130_fd_pr__pfet_01v8_lvt ad=0.122 pd=1.13 as=0.122 ps=1.13 w=0.84 l=0.35
X111 hgu_cdac_8bit_array_3.drv<15:0> a_5521_5720# hgu_inverter_1.VSS hgu_inverter_1.VSS sky130_fd_pr__nfet_01v8_lvt ad=0.0609 pd=0.71 as=0.0609 ps=0.71 w=0.42 l=0.35
X112 hgu_cdac_8bit_array_3.drv<31:0> a_10713_5389# hgu_inverter_1.VSS hgu_inverter_1.VSS sky130_fd_pr__nfet_01v8_lvt ad=0.0609 pd=0.71 as=0.0609 ps=0.71 w=0.42 l=0.35
X113 hgu_inverter_1.VSS a_1437_5881# hgu_cdac_8bit_array_3.drv<3:0> hgu_inverter_1.VSS sky130_fd_pr__nfet_01v8_lvt ad=0.0609 pd=0.71 as=0.0609 ps=0.71 w=0.42 l=0.35
X114 hgu_cdac_8bit_array_3.drv<31:0> a_10713_5389# inv_32_test_0/inv_16_test_1/inv_8_test_1/inv_4_test_1/inv_2_test_1/x2.VREF inv_32_test_0/inv_16_test_1/inv_8_test_1/inv_4_test_1/inv_2_test_1/x2.VDD sky130_fd_pr__pfet_01v8_lvt ad=0.122 pd=1.13 as=0.122 ps=1.13 w=0.84 l=0.35
X115 hgu_cdac_8bit_array_2.drv<7:0> a_3540_5180# hgu_inverter_1.VSS hgu_inverter_1.VSS sky130_fd_pr__nfet_01v8_lvt ad=0.0609 pd=0.71 as=0.0609 ps=0.71 w=0.42 l=0.35
X116 hgu_cdac_8bit_array_2.drv<15:0> a_8105_5185# inv_16_test_0/inv_8_test_1/inv_4_test_1/inv_2_test_1/x2.VREF inv_16_test_0/inv_8_test_1/inv_4_test_1/inv_2_test_1/x2.VDD sky130_fd_pr__pfet_01v8_lvt ad=0.122 pd=1.13 as=0.122 ps=1.13 w=0.84 l=0.35
X117 hgu_cdac_8bit_array_3.drv<3:0> a_1437_5881# inv_4_test_2/inv_2_test_1/x2.VREF inv_4_test_2/inv_2_test_1/x2.VDD sky130_fd_pr__pfet_01v8_lvt ad=0.122 pd=1.13 as=0.244 ps=2.26 w=0.84 l=0.35
X118 hgu_inverter_1.VSS a_20359_5189# hgu_cdac_8bit_array_2.drv<63:0> hgu_inverter_1.VSS sky130_fd_pr__nfet_01v8_lvt ad=0.0609 pd=0.71 as=0.0609 ps=0.71 w=0.42 l=0.35
X119 inv_32_test_1/inv_16_test_1/inv_8_test_1/inv_4_test_1/inv_2_test_1/x2.VREF a_15263_5235# hgu_cdac_8bit_array_2.drv<31:0> inv_32_test_1/inv_16_test_1/inv_8_test_1/inv_4_test_1/inv_2_test_1/x2.VDD sky130_fd_pr__pfet_01v8_lvt ad=0.122 pd=1.13 as=0.122 ps=1.13 w=0.84 l=0.35
X120 hgu_inverter_1.VSS a_1921_5185# hgu_cdac_8bit_array_2.drv<3:0> hgu_inverter_1.VSS sky130_fd_pr__nfet_01v8_lvt ad=0.122 pd=1.42 as=0.0609 ps=0.71 w=0.42 l=0.35
X121 hgu_cdac_8bit_array_2.drv<63:0> a_20359_5189# hgu_inverter_1.VSS hgu_inverter_1.VSS sky130_fd_pr__nfet_01v8_lvt ad=0.0609 pd=0.71 as=0.0609 ps=0.71 w=0.42 l=0.35
X122 hgu_inverter_1.VSS a_29809_5455# hgu_cdac_8bit_array_3.drv<63:0> hgu_inverter_1.VSS sky130_fd_pr__nfet_01v8_lvt ad=0.0609 pd=0.71 as=0.0609 ps=0.71 w=0.42 l=0.35
X123 hgu_cdac_8bit_array_3.drv<15:0> a_5521_5720# inv_16_test_1/inv_8_test_1/inv_4_test_1/inv_2_test_1/x2.VREF inv_16_test_1/inv_8_test_1/inv_4_test_1/inv_2_test_1/x2.VDD sky130_fd_pr__pfet_01v8_lvt ad=0.122 pd=1.13 as=0.122 ps=1.13 w=0.84 l=0.35
X124 hgu_cdac_8bit_array_2.drv<63:0> a_20359_5189# inv_64_test_1/inv_32_test_2/inv_16_test_1/inv_8_test_1/inv_4_test_1/inv_2_test_1/x2.VREF inv_64_test_1/inv_32_test_2/inv_16_test_1/inv_8_test_1/inv_4_test_1/inv_2_test_1/x2.VDD sky130_fd_pr__pfet_01v8_lvt ad=0.122 pd=1.13 as=0.122 ps=1.13 w=0.84 l=0.35
X125 hgu_cdac_8bit_array_3.drv<63:0> a_29809_5455# inv_64_test_0/inv_32_test_2/inv_16_test_1/inv_8_test_1/inv_4_test_1/inv_2_test_1/x2.VREF inv_64_test_0/inv_32_test_2/inv_16_test_1/inv_8_test_1/inv_4_test_1/inv_2_test_1/x2.VDD sky130_fd_pr__pfet_01v8_lvt ad=0.122 pd=1.13 as=0.122 ps=1.13 w=0.84 l=0.35
X126 hgu_inverter_1.VSS a_10713_5389# hgu_cdac_8bit_array_3.drv<31:0> hgu_inverter_1.VSS sky130_fd_pr__nfet_01v8_lvt ad=0.0609 pd=0.71 as=0.0609 ps=0.71 w=0.42 l=0.35
X127 hgu_inverter_1.VSS a_5521_5720# hgu_cdac_8bit_array_3.drv<15:0> hgu_inverter_1.VSS sky130_fd_pr__nfet_01v8_lvt ad=0.0609 pd=0.71 as=0.0609 ps=0.71 w=0.42 l=0.35
X128 inv_32_test_1/inv_16_test_1/inv_8_test_1/inv_4_test_1/inv_2_test_1/x2.VREF a_15263_5235# hgu_cdac_8bit_array_2.drv<31:0> inv_32_test_1/inv_16_test_1/inv_8_test_1/inv_4_test_1/inv_2_test_1/x2.VDD sky130_fd_pr__pfet_01v8_lvt ad=0.122 pd=1.13 as=0.122 ps=1.13 w=0.84 l=0.35
X129 inv_64_test_1/inv_32_test_2/inv_16_test_1/inv_8_test_1/inv_4_test_1/inv_2_test_1/x2.VREF a_20359_5189# hgu_cdac_8bit_array_2.drv<63:0> inv_64_test_1/inv_32_test_2/inv_16_test_1/inv_8_test_1/inv_4_test_1/inv_2_test_1/x2.VDD sky130_fd_pr__pfet_01v8_lvt ad=0.122 pd=1.13 as=0.122 ps=1.13 w=0.84 l=0.35
X130 hgu_cdac_8bit_array_3.drv<63:0> a_29809_5455# inv_64_test_0/inv_32_test_2/inv_16_test_1/inv_8_test_1/inv_4_test_1/inv_2_test_1/x2.VREF inv_64_test_0/inv_32_test_2/inv_16_test_1/inv_8_test_1/inv_4_test_1/inv_2_test_1/x2.VDD sky130_fd_pr__pfet_01v8_lvt ad=0.122 pd=1.13 as=0.122 ps=1.13 w=0.84 l=0.35
X131 hgu_cdac_8bit_array_3.drv<31:0> a_10713_5389# hgu_inverter_1.VSS hgu_inverter_1.VSS sky130_fd_pr__nfet_01v8_lvt ad=0.0609 pd=0.71 as=0.0609 ps=0.71 w=0.42 l=0.35
X132 hgu_cdac_8bit_array_3.drv<15:0> a_5521_5720# inv_16_test_1/inv_8_test_1/inv_4_test_1/inv_2_test_1/x2.VREF inv_16_test_1/inv_8_test_1/inv_4_test_1/inv_2_test_1/x2.VDD sky130_fd_pr__pfet_01v8_lvt ad=0.122 pd=1.13 as=0.122 ps=1.13 w=0.84 l=0.35
X133 hgu_cdac_8bit_array_2.drv<31:0> a_15263_5235# hgu_inverter_1.VSS hgu_inverter_1.VSS sky130_fd_pr__nfet_01v8_lvt ad=0.0609 pd=0.71 as=0.0609 ps=0.71 w=0.42 l=0.35