* NGSPICE file created from hgu_top_block_flat.ext - technology: sky130A

.subckt hgu_top_block_flat sel_bit[0] sel_bit[1] sar_result[1] sar_result[0] sar_result[2]
+ sar_result[3] sar_result[5] EXT_CLK sample_delay_cap_ctrl_code[11] sample_delay_cap_ctrl_code[3]
+ sample_delay_cap_ctrl_code[2] sample_delay_cap_ctrl_code[1] sample_delay_cap_ctrl_code[0]
+ sample_delay_cap_ctrl_code[6] sample_delay_cap_ctrl_code[5] sample_delay_cap_ctrl_code[4]
+ sample_delay_cap_ctrl_code[10] sample_delay_cap_ctrl_code[9] sample_delay_cap_ctrl_code[8]
+ sample_delay_cap_ctrl_code[14] sample_delay_cap_ctrl_code[13] sample_delay_offset
+ async_resetb_delay_cap_ctrl_code[2] async_resetb_delay_cap_ctrl_code[1] async_setb_delay_cap_ctrl_code[1]
+ async_setb_delay_cap_ctrl_code[2] async_setb_delay_cap_ctrl_code[3] retimer_delay_code[2]
+ retimer_delay_code[1] retimer_delay_offset async_delay_offset vip vin async_resetb_delay_cap_ctrl_code[0]
+ async_resetb_delay_cap_ctrl_code[3] sar_result[4] retimer_delay_code[3] sar_result[6]
+ sample_delay_cap_ctrl_code[12] sar_result[7] async_setb_delay_cap_ctrl_code[0] sample_delay_cap_ctrl_code[15]
+ sample_delay_cap_ctrl_code[7] VDD VSS
X0 a_n982_1868# hgu_sarlogic_flat_0.x4.x5.D VSS VSS sky130_fd_pr__nfet_01v8 ad=0.066 pd=0.745 as=0.109 ps=1.36 w=0.42 l=0.15
X1 hgu_cdac_half_1.VREF hgu_cdac_half_1.d<5> hgu_cdac_half_1.hgu_cdac_8bit_array_3.drv<31:0> hgu_cdac_half_1.VDD sky130_fd_pr__pfet_01v8_lvt ad=0.122 pd=1.13 as=0.122 ps=1.13 w=0.84 l=0.35
X2 hgu_sarlogic_flat_0.x2.x2.x3.x5[7].floating hgu_sarlogic_flat_0.x2.x2.x3.x10.Y hgu_sarlogic_flat_0.x2.x2.x3.x9.output_stack VDD sky130_fd_pr__pfet_01v8 ad=0.122 pd=1.42 as=0.101 ps=0.9 w=0.42 l=0.15
X3 VSS a_n607_7947# hgu_cdac_sw_buffer_2.x7.X VSS sky130_fd_pr__nfet_01v8 ad=0.0754 pd=0.81 as=0.135 ps=1.56 w=0.52 l=0.15
X4 VSS a_12012_2136# a_12733_1868# VSS sky130_fd_pr__nfet_01v8 ad=0.097 pd=0.975 as=0.109 ps=1.36 w=0.42 l=0.15
X5 hgu_sarlogic_flat_0.x4.x19.Q_N a_2444_2136# VDD VDD sky130_fd_pr__pfet_01v8_hvt ad=0.26 pd=2.52 as=0.154 ps=1.34 w=1 l=0.15
X6 hgu_cdac_half_1.VREF hgu_cdac_half_1.d<6> hgu_cdac_half_1.hgu_cdac_8bit_array_3.drv<63:0> hgu_cdac_half_1.VDD sky130_fd_pr__pfet_01v8_lvt ad=0.122 pd=1.13 as=0.122 ps=1.13 w=0.84 l=0.35
X7 VSS hgu_cdac_half_1.db<3> hgu_cdac_half_1.hgu_cdac_8bit_array_2.drv<7:0> VSS sky130_fd_pr__nfet_01v8_lvt ad=0.0609 pd=0.71 as=0.0609 ps=0.71 w=0.42 l=0.35
X8 VDD a_2036_7824# hgu_sarlogic_flat_0.x3.x4.X VDD sky130_fd_pr__pfet_01v8_hvt ad=0.26 pd=2.52 as=0.135 ps=1.27 w=1 l=0.15
X9 a_10681_7824# a_9763_7798# a_10235_8008# VSS sky130_fd_pr__nfet_01v8 ad=0.066 pd=0.745 as=0.0684 ps=0.74 w=0.36 l=0.15
X10 a_7071_6052# a_7369_6352# a_7305_6444# VDD sky130_fd_pr__pfet_01v8_hvt ad=0.0567 pd=0.69 as=0.0924 ps=0.86 w=0.42 l=0.15
X11 VDD a_12069_8487# a_12790_8795# VDD sky130_fd_pr__pfet_01v8_hvt ad=0.218 pd=2.2 as=0.0882 ps=1.05 w=0.84 l=0.15
X12 VDD a_n871_7253# hgu_cdac_half_1.d<3> VDD sky130_fd_pr__pfet_01v8_hvt ad=0.115 pd=1.08 as=0.205 ps=2.1 w=0.79 l=0.15
X13 a_12494_6078# a_12626_6262# a_12358_6052# VSS sky130_fd_pr__nfet_01v8 ad=0.101 pd=0.99 as=0.0864 ps=0.91 w=0.64 l=0.15
X14 VSS a_1196_n1740# hgu_cdac_half_0.d<6> VSS sky130_fd_pr__nfet_01v8 ad=0.0878 pd=0.92 as=0.0878 ps=0.92 w=0.65 l=0.15
X15 a_2975_1179# a_2058_1153# a_2530_1363# VSS sky130_fd_pr__nfet_01v8 ad=0.066 pd=0.745 as=0.0675 ps=0.735 w=0.36 l=0.15
X16 hgu_cdac_half_1.VREF hgu_cdac_half_1.d<6> hgu_cdac_half_1.hgu_cdac_8bit_array_3.drv<63:0> hgu_cdac_half_1.VDD sky130_fd_pr__pfet_01v8_lvt ad=0.122 pd=1.13 as=0.122 ps=1.13 w=0.84 l=0.35
X17 hgu_cdac_half_1.VREF hgu_cdac_half_1.db<6> hgu_cdac_half_1.hgu_cdac_8bit_array_2.drv<63:0> hgu_cdac_half_1.VDD sky130_fd_pr__pfet_01v8_lvt ad=0.122 pd=1.13 as=0.122 ps=1.13 w=0.84 l=0.35
X18 hgu_cdac_half_1.hgu_cdac_8bit_array_3.drv<15:0> hgu_cdac_half_1.d<4> hgu_cdac_half_1.VREF hgu_cdac_half_1.VDD sky130_fd_pr__pfet_01v8_lvt ad=0.122 pd=1.13 as=0.122 ps=1.13 w=0.84 l=0.35
X19 a_n7766_6446# a_n7390_7871# VDD VDD sky130_fd_pr__pfet_01v8 ad=0.139 pd=1.17 as=0.139 ps=1.17 w=0.84 l=0.15
X20 VSS a_n148_n1104# hgu_cdac_half_0.db<4> VSS sky130_fd_pr__nfet_01v8 ad=0.169 pd=1.82 as=0.0878 ps=0.92 w=0.65 l=0.15
X21 hgu_cdac_half_1.d<6> a_n2219_8368# VSS VSS sky130_fd_pr__nfet_01v8 ad=0.0878 pd=0.92 as=0.0878 ps=0.92 w=0.65 l=0.15
X22 a_7371_7798# hgu_sarlogic_flat_0.x3.x5.X VDD VDD sky130_fd_pr__pfet_01v8_hvt ad=0.166 pd=1.8 as=0.0864 ps=0.91 w=0.64 l=0.15
X23 a_n6887_13761# hgu_comp_flat_0.ready a_n6959_13899# VSS sky130_fd_pr__nfet_01v8 ad=0.122 pd=1.42 as=0.0441 ps=0.63 w=0.42 l=0.15
X24 a_9523_8513# a_9677_8487# a_9383_8487# VSS sky130_fd_pr__nfet_01v8 ad=0.166 pd=1.8 as=0.0864 ps=0.91 w=0.64 l=0.15
X25 hgu_cdac_half_1.hgu_cdac_8bit_array_3.drv<7:0> hgu_cdac_half_1.d<3> VSS VSS sky130_fd_pr__nfet_01v8_lvt ad=0.0609 pd=0.71 as=0.0609 ps=0.71 w=0.42 l=0.35
X26 VDD hgu_comp_flat_0.RS_p a_n7216_6420# VDD sky130_fd_pr__pfet_01v8 ad=0.244 pd=2.26 as=0.244 ps=2.26 w=0.84 l=0.15
X27 hgu_cdac_sw_buffer_0.VDD a_n1158_n1744# hgu_cdac_half_0.db<6> hgu_cdac_sw_buffer_0.VDD sky130_fd_pr__pfet_01v8_hvt ad=0.135 pd=1.27 as=0.135 ps=1.27 w=1 l=0.15
X28 a_1993_1179# a_1203_1153# VSS VSS sky130_fd_pr__nfet_01v8 ad=0.066 pd=0.745 as=0.0703 ps=0.755 w=0.42 l=0.15
X29 VSS a_10164_8487# a_10099_8513# VSS sky130_fd_pr__nfet_01v8 ad=0.0588 pd=0.7 as=0.066 ps=0.745 w=0.42 l=0.15
X30 hgu_sarlogic_flat_0.x4.x25.Q_N a_7228_2136# VSS VSS sky130_fd_pr__nfet_01v8 ad=0.169 pd=1.82 as=0.097 ps=0.975 w=0.65 l=0.15
X31 VSS a_8909_7798# hgu_sarlogic_flat_0.x3.x42.Q_N VSS sky130_fd_pr__nfet_01v8 ad=0.097 pd=0.975 as=0.169 ps=1.82 w=0.65 l=0.15
X32 a_4532_6951# a_4143_6951# a_4424_7317# VSS sky130_fd_pr__nfet_01v8 ad=0.0671 pd=0.75 as=0.0684 ps=0.74 w=0.36 l=0.15
X33 hgu_cdac_half_0.VREF hgu_cdac_half_0.d<2> hgu_cdac_half_0.hgu_cdac_8bit_array_3.hgu_cdac_cap_4_0.CBOT hgu_cdac_half_0.VDD sky130_fd_pr__pfet_01v8_lvt ad=0.244 pd=2.26 as=0.122 ps=1.13 w=0.84 l=0.35
X34 hgu_cdac_half_0.hgu_cdac_8bit_array_2.drv<63:0> hgu_cdac_half_0.db<6> hgu_cdac_half_0.VREF hgu_cdac_half_0.VDD sky130_fd_pr__pfet_01v8_lvt ad=0.122 pd=1.13 as=0.122 ps=1.13 w=0.84 l=0.35
X35 hgu_cdac_half_0.hgu_cdac_8bit_array_2.drv<63:0> hgu_cdac_half_0.db<6> VSS VSS sky130_fd_pr__nfet_01v8_lvt ad=0.0609 pd=0.71 as=0.0609 ps=0.71 w=0.42 l=0.35
X36 a_18224_5950# a_18058_5950# VSS VSS sky130_fd_pr__nfet_01v8 ad=0.109 pd=1.36 as=0.0567 ps=0.69 w=0.42 l=0.15
X37 a_14490_1363# a_14018_1153# a_14734_1545# VDD sky130_fd_pr__pfet_01v8_hvt ad=0.0567 pd=0.69 as=0.0945 ps=0.87 w=0.42 l=0.15
X38 hgu_cdac_sw_buffer_3.x11.X a_n4397_8367# VSS VSS sky130_fd_pr__nfet_01v8 ad=0.0878 pd=0.92 as=0.0878 ps=0.92 w=0.65 l=0.15
X39 VSS hgu_comp_flat_0.clk a_n7660_7467# VSS sky130_fd_pr__nfet_01v8 ad=0.165 pd=1.33 as=0.165 ps=1.33 w=1 l=0.15
X40 hgu_cdac_half_1.d<0> a_15125_1868# VSS VSS sky130_fd_pr__nfet_01v8 ad=0.169 pd=1.82 as=0.097 ps=0.975 w=0.65 l=0.15
X41 hgu_vgen_vref_0.vcm hgu_vgen_vref_0.phi1 hgu_vgen_vref_0.mimtop2 VSS sky130_fd_pr__nfet_01v8 ad=0.145 pd=1.58 as=0.0725 ps=0.79 w=0.5 l=0.5
X42 hgu_sarlogic_flat_0.x4.x2.X a_n424_3698# VSS VSS sky130_fd_pr__nfet_01v8 ad=0.0878 pd=0.92 as=0.0878 ps=0.92 w=0.65 l=0.15
X43 a_18224_6596# a_18058_6596# VSS VSS sky130_fd_pr__nfet_01v8 ad=0.109 pd=1.36 as=0.0567 ps=0.69 w=0.42 l=0.15
X44 a_12291_6444# a_12154_6052# a_11855_6052# VDD sky130_fd_pr__pfet_01v8_hvt ad=0.174 pd=1.41 as=0.0567 ps=0.69 w=0.42 l=0.15
X45 hgu_cdac_sw_buffer_0.VDD hgu_cdac_sw_buffer_0.x11.A a_n1158_n1744# hgu_cdac_sw_buffer_0.VDD sky130_fd_pr__pfet_01v8_hvt ad=0.135 pd=1.27 as=0.135 ps=1.27 w=1 l=0.15
X46 hgu_cdac_half_1.d<6> a_n2219_8368# VSS VSS sky130_fd_pr__nfet_01v8 ad=0.0878 pd=0.92 as=0.0878 ps=0.92 w=0.65 l=0.15
X47 VSS hgu_sarlogic_flat_0.x4.D[5] a_5367_1179# VSS sky130_fd_pr__nfet_01v8 ad=0.109 pd=1.36 as=0.066 ps=0.745 w=0.42 l=0.15
X48 a_11856_7798# a_12155_7798# a_12090_7824# VSS sky130_fd_pr__nfet_01v8 ad=0.0711 pd=0.755 as=0.066 ps=0.745 w=0.36 l=0.15
X49 a_8798_1179# a_8925_1347# a_8379_1153# VSS sky130_fd_pr__nfet_01v8 ad=0.109 pd=1.03 as=0.0864 ps=0.91 w=0.64 l=0.15
X50 VDD a_8281_2708# hgu_sarlogic_flat_0.x4.x14.X VDD sky130_fd_pr__pfet_01v8_hvt ad=0.158 pd=1.39 as=0.26 ps=2.52 w=1 l=0.15
X51 VSS hgu_cdac_half_1.d<6> hgu_cdac_half_1.hgu_cdac_8bit_array_3.drv<63:0> VSS sky130_fd_pr__nfet_01v8_lvt ad=0.0609 pd=0.71 as=0.0609 ps=0.71 w=0.42 l=0.35
X52 hgu_cdac_half_0.hgu_cdac_8bit_array_3.drv<63:0> hgu_cdac_half_0.d<6> VSS VSS sky130_fd_pr__nfet_01v8_lvt ad=0.0609 pd=0.71 as=0.0609 ps=0.71 w=0.42 l=0.35
X53 a_4976_1868# a_4362_1842# a_4836_2136# VSS sky130_fd_pr__nfet_01v8 ad=0.166 pd=1.8 as=0.0864 ps=0.91 w=0.64 l=0.15
X54 hgu_cdac_half_1.hgu_cdac_8bit_array_3.drv<15:0> hgu_cdac_half_1.d<4> VSS VSS sky130_fd_pr__nfet_01v8_lvt ad=0.0609 pd=0.71 as=0.0609 ps=0.71 w=0.42 l=0.35
X55 hgu_cdac_half_1.VREF hgu_cdac_half_1.d<6> hgu_cdac_half_1.hgu_cdac_8bit_array_3.drv<63:0> hgu_cdac_half_1.VDD sky130_fd_pr__pfet_01v8_lvt ad=0.122 pd=1.13 as=0.122 ps=1.13 w=0.84 l=0.35
X56 a_n4397_8367# hgu_cdac_sw_buffer_3.x11.A VDD VDD sky130_fd_pr__pfet_01v8_hvt ad=0.135 pd=1.27 as=0.135 ps=1.27 w=1 l=0.15
X57 hgu_cdac_half_0.d<6> a_1196_n1740# VSS VSS sky130_fd_pr__nfet_01v8 ad=0.0878 pd=0.92 as=0.0878 ps=0.92 w=0.65 l=0.15
X58 VDD VDD a_16581_5924# VDD sky130_fd_pr__pfet_01v8_hvt ad=0.154 pd=1.34 as=0.166 ps=1.8 w=0.64 l=0.15
X59 VSS VDD a_9146_1842# VSS sky130_fd_pr__nfet_01v8 ad=0.097 pd=0.975 as=0.109 ps=1.36 w=0.42 l=0.15
X60 hgu_cdac_half_1.hgu_cdac_8bit_array_3.drv<31:0> hgu_cdac_half_1.d<5> VSS VSS sky130_fd_pr__nfet_01v8_lvt ad=0.0609 pd=0.71 as=0.0609 ps=0.71 w=0.42 l=0.35
X61 a_10279_6951# hgu_sarlogic_flat_0.x3.x42.Q_N VSS VSS sky130_fd_pr__nfet_01v8 ad=0.12 pd=1.08 as=0.0588 ps=0.7 w=0.42 l=0.15
X62 a_14654_8353# hgu_sarlogic_flat_0.x5.eob a_14566_8353# VSS sky130_fd_pr__nfet_01v8 ad=0.0441 pd=0.63 as=0.122 ps=1.42 w=0.42 l=0.15
X63 VSS a_1454_6950# hgu_sarlogic_flat_0.x3.x7.X VSS sky130_fd_pr__nfet_01v8 ad=0.169 pd=1.82 as=0.0878 ps=0.92 w=0.65 l=0.15
X64 VSS hgu_cdac_half_0.db<5> hgu_cdac_half_0.hgu_cdac_8bit_array_2.drv<31:0> VSS sky130_fd_pr__nfet_01v8_lvt ad=0.0609 pd=0.71 as=0.0609 ps=0.71 w=0.42 l=0.35
X65 a_4141_1347# a_4450_1153# a_4385_1179# VSS sky130_fd_pr__nfet_01v8 ad=0.0486 pd=0.63 as=0.066 ps=0.745 w=0.36 l=0.15
X66 hgu_sarlogic_flat_0.x5.x2.x10.Y retimer_delay_code[3] VDD VDD sky130_fd_pr__pfet_01v8_hvt ad=0.26 pd=2.52 as=0.26 ps=2.52 w=1 l=0.15
X67 hgu_vgen_vref_0.vcm VSS VSS sky130_fd_pr__cap_var_lvt w=16.4 l=16
X68 hgu_cdac_half_0.VREF hgu_cdac_half_0.d<6> hgu_cdac_half_0.hgu_cdac_8bit_array_3.drv<63:0> hgu_cdac_half_0.VDD sky130_fd_pr__pfet_01v8_lvt ad=0.122 pd=1.13 as=0.122 ps=1.13 w=0.84 l=0.35
X69 VSS hgu_cdac_half_0.db<6> hgu_cdac_half_0.hgu_cdac_8bit_array_2.drv<63:0> VSS sky130_fd_pr__nfet_01v8_lvt ad=0.0609 pd=0.71 as=0.0609 ps=0.71 w=0.42 l=0.35
X70 a_611_11594# a_n134_11726# a_747_11682# VSS sky130_fd_pr__nfet_01v8 ad=0.0864 pd=0.91 as=0.166 ps=1.8 w=0.64 l=0.15
X71 hgu_vgen_vref_0.mimtop1 hgu_vgen_vref_0.mimbot1 sky130_fd_pr__cap_mim_m3_1 l=17.2 w=17.2
X72 hgu_cdac_half_0.VREF hgu_cdac_half_0.d<4> hgu_cdac_half_0.hgu_cdac_8bit_array_3.drv<15:0> hgu_cdac_half_0.VDD sky130_fd_pr__pfet_01v8_lvt ad=0.122 pd=1.13 as=0.122 ps=1.13 w=0.84 l=0.35
X73 hgu_cdac_half_0.hgu_cdac_8bit_array_3.drv<31:0> hgu_cdac_half_0.d<5> VSS VSS sky130_fd_pr__nfet_01v8_lvt ad=0.0609 pd=0.71 as=0.0609 ps=0.71 w=0.42 l=0.35
X74 a_6829_6078# hgu_sarlogic_flat_0.x3.x4.X VDD VDD sky130_fd_pr__pfet_01v8_hvt ad=0.166 pd=1.8 as=0.154 ps=1.34 w=0.64 l=0.15
X75 hgu_sarlogic_flat_0.x4.x13.X a_7570_2883# VSS VSS sky130_fd_pr__nfet_01v8 ad=0.169 pd=1.82 as=0.113 ps=1.04 w=0.65 l=0.15
X76 a_17068_6564# VDD VDD VDD sky130_fd_pr__pfet_01v8_hvt ad=0.123 pd=1.17 as=0.0819 ps=0.81 w=0.42 l=0.15
X77 VDD a_9620_2136# a_9545_2234# VDD sky130_fd_pr__pfet_01v8_hvt ad=0.0956 pd=0.875 as=0.0787 ps=0.795 w=0.42 l=0.15
X78 VSS hgu_sarlogic_flat_0.x2.x3.Y a_2323_11578# VSS sky130_fd_pr__nfet_01v8 ad=0.122 pd=1.42 as=0.122 ps=1.42 w=0.42 l=0.15
X79 a_3314_11664# hgu_sarlogic_flat_0.x2.x7.A VDD VSS sky130_fd_pr__nfet_01v8 ad=0.0651 pd=0.73 as=0.0693 ps=0.75 w=0.42 l=0.15
X80 a_555_10641# hgu_sarlogic_flat_0.x1.x3.X a_192_10793# VSS sky130_fd_pr__nfet_01v8 ad=0.0693 pd=0.75 as=0.0997 ps=0.895 w=0.42 l=0.15
X81 VDD hgu_cdac_sw_buffer_3.x9.X a_n4479_7727# VDD sky130_fd_pr__pfet_01v8_hvt ad=0.135 pd=1.27 as=0.26 ps=2.52 w=1 l=0.15
X82 a_5891_1331# a_5987_1153# VSS VSS sky130_fd_pr__nfet_01v8 ad=0.109 pd=1.36 as=0.097 ps=0.975 w=0.42 l=0.15
X83 a_12152_1868# hgu_sarlogic_flat_0.x4.x2.X VSS VSS sky130_fd_pr__nfet_01v8 ad=0.109 pd=1.03 as=0.0703 ps=0.755 w=0.42 l=0.15
X84 VDD a_18973_5924# a_19694_6232# VDD sky130_fd_pr__pfet_01v8_hvt ad=0.218 pd=2.2 as=0.0882 ps=1.05 w=0.84 l=0.15
X85 VSS VSS a_1390_n460# VSS sky130_fd_pr__nfet_01v8 ad=0.0754 pd=0.81 as=0.135 ps=1.56 w=0.52 l=0.15
X86 hgu_cdac_half_0.hgu_cdac_8bit_array_2.drv<15:0> hgu_cdac_half_0.db<4> VSS VSS sky130_fd_pr__nfet_01v8_lvt ad=0.0609 pd=0.71 as=0.0609 ps=0.71 w=0.42 l=0.35
X87 hgu_comp_flat_0.RS_n a_n6526_6819# VSS VSS sky130_fd_pr__nfet_01v8 ad=0.244 pd=2.26 as=0.122 ps=1.13 w=0.84 l=0.15
X88 a_18224_4670# a_18058_4670# VDD VDD sky130_fd_pr__pfet_01v8_hvt ad=0.166 pd=1.8 as=0.0864 ps=0.91 w=0.64 l=0.15
X89 a_20464_8538# hgu_sarlogic_flat_0.x5.x2.x9.output_stack hgu_sarlogic_flat_0.x5.x3.A VSS sky130_fd_pr__nfet_01v8 ad=0.0651 pd=0.73 as=0.122 ps=1.42 w=0.42 l=0.15
X90 VSS hgu_sarlogic_flat_0.x3.x4.A a_2036_7824# VSS sky130_fd_pr__nfet_01v8 ad=0.0878 pd=0.92 as=0.0878 ps=0.92 w=0.65 l=0.15
X91 hgu_cdac_half_0.VREF hgu_cdac_half_0.db<3> hgu_cdac_half_0.hgu_cdac_8bit_array_2.drv<7:0> hgu_cdac_half_0.VDD sky130_fd_pr__pfet_01v8_lvt ad=0.122 pd=1.13 as=0.122 ps=1.13 w=0.84 l=0.35
X92 VDD a_3960_3698# hgu_sarlogic_flat_0.x4.x9.A1 VDD sky130_fd_pr__pfet_01v8_hvt ad=0.135 pd=1.27 as=0.135 ps=1.27 w=1 l=0.15
X93 hgu_sarlogic_flat_0.x4.x9.A1 a_3960_3698# VSS VSS sky130_fd_pr__nfet_01v8 ad=0.0878 pd=0.92 as=0.0878 ps=0.92 w=0.65 l=0.15
X94 vin hgu_tah_0.sw hgu_tah_0.tah_vn VSS sky130_fd_pr__nfet_01v8 ad=0.454 pd=3.08 as=0.853 ps=6.12 w=2.75 l=0.15
X95 VSS hgu_sarlogic_flat_0.x4.x14.X a_8232_1868# VSS sky130_fd_pr__nfet_01v8 ad=0.0567 pd=0.69 as=0.109 ps=1.36 w=0.42 l=0.15
X96 VDD VDD a_4362_1842# VDD sky130_fd_pr__pfet_01v8_hvt ad=0.154 pd=1.34 as=0.17 ps=1.81 w=0.64 l=0.15
X97 VDD sample_delay_offset hgu_sarlogic_flat_0.x2.x2.x4.x6.SW VDD sky130_fd_pr__pfet_01v8_hvt ad=0.26 pd=2.52 as=0.26 ps=2.52 w=1 l=0.15
X98 VSS a_4979_7798# a_4978_8098# VSS sky130_fd_pr__nfet_01v8 ad=0.0567 pd=0.69 as=0.109 ps=1.36 w=0.42 l=0.15
X99 a_2725_6078# a_2585_6352# a_2287_6052# VSS sky130_fd_pr__nfet_01v8 ad=0.0935 pd=0.965 as=0.0711 ps=0.755 w=0.36 l=0.15
X100 hgu_vgen_vref_0.mimtop2 VSS sky130_fd_pr__cap_mim_m3_1 l=17.2 w=17.2
X101 a_5205_6951# a_4143_6951# a_5110_6951# VSS sky130_fd_pr__nfet_01v8 ad=0.0711 pd=0.755 as=0.0935 ps=0.965 w=0.36 l=0.15
X102 a_12342_1179# a_11830_1153# VSS VSS sky130_fd_pr__nfet_01v8 ad=0.0671 pd=0.75 as=0.0882 ps=0.84 w=0.42 l=0.15
X103 hgu_cdac_half_0.hgu_cdac_8bit_array_3.drv<63:0> hgu_cdac_half_0.d<6> hgu_cdac_half_0.VREF hgu_cdac_half_0.VDD sky130_fd_pr__pfet_01v8_lvt ad=0.122 pd=1.13 as=0.122 ps=1.13 w=0.84 l=0.35
X104 a_n2219_8368# hgu_cdac_sw_buffer_2.x11.A VSS VSS sky130_fd_pr__nfet_01v8 ad=0.0878 pd=0.92 as=0.169 ps=1.82 w=0.65 l=0.15
X105 VSS VDD a_n770_1179# VSS sky130_fd_pr__nfet_01v8 ad=0.0703 pd=0.755 as=0.109 ps=1.03 w=0.42 l=0.15
X106 VSS hgu_cdac_half_0.db<6> hgu_cdac_half_0.hgu_cdac_8bit_array_2.drv<63:0> VSS sky130_fd_pr__nfet_01v8_lvt ad=0.0609 pd=0.71 as=0.0609 ps=0.71 w=0.42 l=0.35
X107 hgu_cdac_half_1.hgu_cdac_8bit_array_2.drv<63:0> hgu_cdac_half_1.db<6> VSS VSS sky130_fd_pr__nfet_01v8_lvt ad=0.0609 pd=0.71 as=0.0609 ps=0.71 w=0.42 l=0.35
X108 hgu_vgen_vref_0.phi1 a_n55304_8227# VSS VSS sky130_fd_pr__nfet_01v8 ad=0.0878 pd=0.92 as=0.0878 ps=0.92 w=0.65 l=0.15
X109 VSS hgu_cdac_half_0.d<4> hgu_cdac_half_0.hgu_cdac_8bit_array_3.drv<15:0> VSS sky130_fd_pr__nfet_01v8_lvt ad=0.0609 pd=0.71 as=0.0609 ps=0.71 w=0.42 l=0.35
X110 a_9574_1179# a_9706_1363# a_9438_1153# VSS sky130_fd_pr__nfet_01v8 ad=0.0974 pd=0.97 as=0.0864 ps=0.91 w=0.64 l=0.15
X111 a_14674_2883# a_14492_2883# VDD VDD sky130_fd_pr__pfet_01v8_hvt ad=0.0441 pd=0.63 as=0.0693 ps=0.75 w=0.42 l=0.15
X112 hgu_cdac_half_1.hgu_cdac_8bit_array_2.drv<31:0> hgu_cdac_half_1.db<5> VSS VSS sky130_fd_pr__nfet_01v8_lvt ad=0.0609 pd=0.71 as=0.0609 ps=0.71 w=0.42 l=0.35
X113 VSS hgu_cdac_half_0.db<6> hgu_cdac_half_0.hgu_cdac_8bit_array_2.drv<63:0> VSS sky130_fd_pr__nfet_01v8_lvt ad=0.0609 pd=0.71 as=0.0609 ps=0.71 w=0.42 l=0.35
X114 hgu_cdac_half_1.VREF hgu_cdac_half_1.d<6> hgu_cdac_half_1.hgu_cdac_8bit_array_3.drv<63:0> hgu_cdac_half_1.VDD sky130_fd_pr__pfet_01v8_lvt ad=0.122 pd=1.13 as=0.122 ps=1.13 w=0.84 l=0.35
X115 VSS hgu_cdac_half_1.db<2> hgu_cdac_half_1.hgu_cdac_8bit_array_2.hgu_cdac_cap_4_0.CBOT VSS sky130_fd_pr__nfet_01v8_lvt ad=0.122 pd=1.42 as=0.0609 ps=0.71 w=0.42 l=0.35
X116 hgu_tah_0.tah_vn hgu_tah_0.sw hgu_tah_0.tah_vn hgu_tah_0.VDD sky130_fd_pr__pfet_01v8 ad=8.85 pd=58.2 as=0.908 ps=5.83 w=5.5 l=0.15
X117 a_7228_2136# hgu_sarlogic_flat_0.x4.x2.X VDD VDD sky130_fd_pr__pfet_01v8_hvt ad=0.132 pd=1.22 as=0.0956 ps=0.875 w=0.42 l=0.15
X118 hgu_cdac_half_1.VREF hgu_cdac_half_1.db<5> hgu_cdac_half_1.hgu_cdac_8bit_array_2.drv<31:0> hgu_cdac_half_1.VDD sky130_fd_pr__pfet_01v8_lvt ad=0.122 pd=1.13 as=0.122 ps=1.13 w=0.84 l=0.35
X119 hgu_cdac_sw_buffer_3.x11.X a_n4397_8367# VSS VSS sky130_fd_pr__nfet_01v8 ad=0.0878 pd=0.92 as=0.0878 ps=0.92 w=0.65 l=0.15
X120 hgu_cdac_half_1.VREF hgu_cdac_half_1.db<6> hgu_cdac_half_1.hgu_cdac_8bit_array_2.drv<63:0> hgu_cdac_half_1.VDD sky130_fd_pr__pfet_01v8_lvt ad=0.122 pd=1.13 as=0.122 ps=1.13 w=0.84 l=0.35
X121 VSS a_n3387_7727# hgu_cdac_half_1.db<4> VSS sky130_fd_pr__nfet_01v8 ad=0.169 pd=1.82 as=0.0878 ps=0.92 w=0.65 l=0.15
X122 a_n7760_6349# a_n6526_6819# VSS VSS sky130_fd_pr__nfet_01v8 ad=0.0759 pd=0.79 as=0.143 ps=1.54 w=0.46 l=0.15
X123 VSS hgu_cdac_half_0.d<5> hgu_cdac_half_0.hgu_cdac_8bit_array_3.drv<31:0> VSS sky130_fd_pr__nfet_01v8_lvt ad=0.0609 pd=0.71 as=0.0609 ps=0.71 w=0.42 l=0.35
X124 a_6252_2556# VSS a_5889_2708# VSS sky130_fd_pr__nfet_01v8 ad=0.0693 pd=0.75 as=0.0997 ps=0.895 w=0.42 l=0.15
X125 VSS a_2268_n241# hgu_cdac_sw_buffer_1.x4.X VSS sky130_fd_pr__nfet_01v8 ad=0.0754 pd=0.81 as=0.135 ps=1.56 w=0.52 l=0.15
X126 hgu_sarlogic_flat_0.x2.x3.A a_3080_14774# VDD VDD sky130_fd_pr__pfet_01v8_hvt ad=0.26 pd=2.52 as=0.149 ps=1.33 w=1 l=0.15
X127 VDD a_11774_6925# a_11684_7317# VDD sky130_fd_pr__pfet_01v8_hvt ad=0.0798 pd=0.8 as=0.0945 ps=0.87 w=0.42 l=0.15
X128 VDD hgu_sarlogic_flat_0.x2.x2.x1.IN a_10575_16177# VDD sky130_fd_pr__pfet_01v8_hvt ad=0.122 pd=1.42 as=0.122 ps=1.42 w=0.42 l=0.15
X129 hgu_sarlogic_flat_0.x1.x2.x4[3].floating async_setb_delay_cap_ctrl_code[2] hgu_sarlogic_flat_0.x1.x2.x9.output_stack VSS sky130_fd_pr__nfet_01v8 ad=0.122 pd=1.42 as=0.0966 ps=0.88 w=0.42 l=0.15
X130 hgu_cdac_half_1.hgu_cdac_8bit_array_3.drv<63:0> hgu_cdac_half_1.d<6> hgu_cdac_half_1.VREF hgu_cdac_half_1.VDD sky130_fd_pr__pfet_01v8_lvt ad=0.122 pd=1.13 as=0.122 ps=1.13 w=0.84 l=0.35
X131 a_7131_8513# VDD VSS VSS sky130_fd_pr__nfet_01v8 ad=0.101 pd=0.99 as=0.084 ps=0.82 w=0.42 l=0.15
X132 hgu_vgen_vref_0.phi2_n a_n54752_6595# VSS VSS sky130_fd_pr__nfet_01v8 ad=0.0878 pd=0.92 as=0.0878 ps=0.92 w=0.65 l=0.15
X133 VSS hgu_cdac_half_0.db<5> hgu_cdac_half_0.hgu_cdac_8bit_array_2.drv<31:0> VSS sky130_fd_pr__nfet_01v8_lvt ad=0.0609 pd=0.71 as=0.0609 ps=0.71 w=0.42 l=0.35
X134 a_13182_1868# a_13016_1868# VSS VSS sky130_fd_pr__nfet_01v8 ad=0.109 pd=1.36 as=0.0567 ps=0.69 w=0.42 l=0.15
X135 a_13494_2530# hgu_sarlogic_flat_0.x4.x20.S VDD VDD sky130_fd_pr__pfet_01v8_hvt ad=0.118 pd=1.4 as=0.0693 ps=0.75 w=0.42 l=0.15
X136 a_n134_11726# hgu_sarlogic_flat_0.x1.x10.Y VDD VDD sky130_fd_pr__pfet_01v8_hvt ad=0.166 pd=1.8 as=0.154 ps=1.34 w=0.64 l=0.15
X137 hgu_sarlogic_flat_0.x2.x7.A hgu_sarlogic_flat_0.x2.x2.x3.x9.output_stack a_3314_11461# VDD sky130_fd_pr__pfet_01v8_hvt ad=0.122 pd=1.42 as=0.0651 ps=0.73 w=0.42 l=0.15
X138 a_14654_7525# hgu_sarlogic_flat_0.x5.eob a_14566_7525# VSS sky130_fd_pr__nfet_01v8 ad=0.0441 pd=0.63 as=0.122 ps=1.42 w=0.42 l=0.15
X139 a_n472_2150# a_n890_2234# a_n716_1842# VDD sky130_fd_pr__pfet_01v8_hvt ad=0.113 pd=1.11 as=0.147 ps=1.23 w=0.84 l=0.15
X140 hgu_cdac_half_1.hgu_cdac_8bit_array_2.drv<63:0> hgu_cdac_half_1.db<6> hgu_cdac_half_1.VREF hgu_cdac_half_1.VDD sky130_fd_pr__pfet_01v8_lvt ad=0.122 pd=1.13 as=0.122 ps=1.13 w=0.84 l=0.35
X141 hgu_cdac_half_0.db<5> a_n688_n1104# VSS VSS sky130_fd_pr__nfet_01v8 ad=0.0878 pd=0.92 as=0.0878 ps=0.92 w=0.65 l=0.15
X142 VDD hgu_sarlogic_flat_0.x4.x9.S a_3000_2883# VDD sky130_fd_pr__pfet_01v8_hvt ad=0.158 pd=1.39 as=0.0767 ps=0.785 w=0.42 l=0.15
X143 hgu_cdac_half_1.hgu_cdac_8bit_array_3.hgu_cdac_cap_4_0.CBOT hgu_cdac_half_1.d<2> VSS VSS sky130_fd_pr__nfet_01v8_lvt ad=0.0609 pd=0.71 as=0.0609 ps=0.71 w=0.42 l=0.35
X144 a_2057_1453# hgu_sarlogic_flat_0.x4.x9.X VSS VSS sky130_fd_pr__nfet_01v8 ad=0.109 pd=1.36 as=0.0567 ps=0.69 w=0.42 l=0.15
X145 hgu_sarlogic_flat_0.x3.D[0] a_8478_6951# VSS VSS sky130_fd_pr__nfet_01v8 ad=0.169 pd=1.82 as=0.097 ps=0.975 w=0.65 l=0.15
X146 VSS a_5182_6052# a_5117_6078# VSS sky130_fd_pr__nfet_01v8 ad=0.166 pd=1.8 as=0.0935 ps=0.965 w=0.64 l=0.15
X147 hgu_cdac_half_0.hgu_cdac_8bit_array_2.drv<31:0> hgu_cdac_half_0.db<5> VSS VSS sky130_fd_pr__nfet_01v8_lvt ad=0.0609 pd=0.71 as=0.0609 ps=0.71 w=0.42 l=0.35
X148 VDD a_11775_8487# a_11685_8879# VDD sky130_fd_pr__pfet_01v8_hvt ad=0.0798 pd=0.8 as=0.0945 ps=0.87 w=0.42 l=0.15
X149 a_n3049_7252# hgu_cdac_sw_buffer_3.x6.A VSS VSS sky130_fd_pr__nfet_01v8 ad=0.135 pd=1.56 as=0.0754 ps=0.81 w=0.52 l=0.15
X150 a_13494_2530# hgu_sarlogic_flat_0.x4.x20.S VSS VSS sky130_fd_pr__nfet_01v8 ad=0.109 pd=1.36 as=0.145 ps=1.11 w=0.42 l=0.15
X151 VSS a_11300_6052# hgu_sarlogic_flat_0.x3.x63.Q_N VSS sky130_fd_pr__nfet_01v8 ad=0.097 pd=0.975 as=0.169 ps=1.82 w=0.65 l=0.15
X152 a_9371_1545# a_9234_1153# a_8925_1347# VDD sky130_fd_pr__pfet_01v8_hvt ad=0.174 pd=1.41 as=0.0567 ps=0.69 w=0.42 l=0.15
X153 hgu_cdac_half_1.d<1> a_12733_1868# VSS VSS sky130_fd_pr__nfet_01v8 ad=0.169 pd=1.82 as=0.097 ps=0.975 w=0.65 l=0.15
X154 hgu_sarlogic_flat_0.x1.x2.x2.floating async_setb_delay_cap_ctrl_code[0] hgu_sarlogic_flat_0.x1.x2.x9.output_stack VSS sky130_fd_pr__nfet_01v8 ad=0.122 pd=1.42 as=0.124 ps=1.43 w=0.42 l=0.15
X155 hgu_vgen_vref_0.vcm VSS VSS sky130_fd_pr__cap_var_lvt w=16.4 l=16
X156 hgu_sarlogic_flat_0.x2.x2.x2.x9.output_stack hgu_sarlogic_flat_0.x2.x2.x2.x10.Y hgu_sarlogic_flat_0.x2.x2.x2.x5[7].floating VDD sky130_fd_pr__pfet_01v8 ad=0.101 pd=0.9 as=0.122 ps=1.42 w=0.42 l=0.15
X157 a_7306_8190# a_6517_7798# VDD VDD sky130_fd_pr__pfet_01v8_hvt ad=0.0924 pd=0.86 as=0.0819 ps=0.81 w=0.42 l=0.15
X158 hgu_cdac_half_0.hgu_cdac_8bit_array_2.drv<63:0> hgu_cdac_half_0.db<6> hgu_cdac_half_0.VREF hgu_cdac_half_0.VDD sky130_fd_pr__pfet_01v8_lvt ad=0.122 pd=1.13 as=0.244 ps=2.26 w=0.84 l=0.35
X159 VSS hgu_sarlogic_flat_0.x4.x9.S a_3007_2556# VSS sky130_fd_pr__nfet_01v8 ad=0.113 pd=1.04 as=0.0693 ps=0.75 w=0.42 l=0.15
X160 VDD hgu_sarlogic_flat_0.x4.x14.X a_8232_1868# VDD sky130_fd_pr__pfet_01v8_hvt ad=0.0864 pd=0.91 as=0.166 ps=1.8 w=0.64 l=0.15
X161 hgu_tah_0.VDD a_n54567_7371# a_n54754_7113# hgu_tah_0.VDD sky130_fd_pr__pfet_01v8_hvt ad=0.141 pd=1.33 as=0.26 ps=2.52 w=1 l=0.15
X162 hgu_cdac_half_0.hgu_cdac_8bit_array_3.drv<63:0> hgu_cdac_half_0.d<6> VSS VSS sky130_fd_pr__nfet_01v8_lvt ad=0.0609 pd=0.71 as=0.0609 ps=0.71 w=0.42 l=0.35
X163 a_13709_1347# a_14018_1153# a_13953_1179# VSS sky130_fd_pr__nfet_01v8 ad=0.0486 pd=0.63 as=0.066 ps=0.745 w=0.36 l=0.15
X164 VDD a_5889_2708# hgu_sarlogic_flat_0.x4.x12.X VDD sky130_fd_pr__pfet_01v8_hvt ad=0.158 pd=1.39 as=0.26 ps=2.52 w=1 l=0.15
X165 a_2786_2883# VSS a_2786_2556# VSS sky130_fd_pr__nfet_01v8 ad=0.0997 pd=0.895 as=0.0693 ps=0.75 w=0.42 l=0.15
X166 VDD a_4979_7798# a_4978_8098# VDD sky130_fd_pr__pfet_01v8_hvt ad=0.0864 pd=0.91 as=0.166 ps=1.8 w=0.64 l=0.15
X167 a_n7660_7467# hgu_tah_0.tah_vn hgu_comp_flat_0.Q VSS sky130_fd_pr__nfet_01v8 ad=0.165 pd=1.33 as=0.165 ps=1.33 w=1 l=0.15
X168 hgu_sarlogic_flat_0.x5.x1[3].Q_N a_19460_5924# VDD VDD sky130_fd_pr__pfet_01v8_hvt ad=0.26 pd=2.52 as=0.154 ps=1.34 w=1 l=0.15
X169 hgu_sarlogic_flat_0.x4.x2.X a_n424_3698# VDD VDD sky130_fd_pr__pfet_01v8_hvt ad=0.135 pd=1.27 as=0.135 ps=1.27 w=1 l=0.15
X170 a_7508_8190# a_7371_7798# a_7072_7798# VDD sky130_fd_pr__pfet_01v8_hvt ad=0.174 pd=1.41 as=0.0567 ps=0.69 w=0.42 l=0.15
X171 a_2584_1868# a_1970_1842# a_2444_2136# VSS sky130_fd_pr__nfet_01v8 ad=0.166 pd=1.8 as=0.0864 ps=0.91 w=0.64 l=0.15
X172 VSS hgu_cdac_half_0.d<6> hgu_cdac_half_0.hgu_cdac_8bit_array_3.drv<63:0> VSS sky130_fd_pr__nfet_01v8_lvt ad=0.0609 pd=0.71 as=0.0609 ps=0.71 w=0.42 l=0.35
X173 hgu_cdac_half_1.hgu_cdac_8bit_array_3.drv<7:0> hgu_cdac_half_1.d<3> hgu_cdac_half_1.VREF hgu_cdac_half_1.VDD sky130_fd_pr__pfet_01v8_lvt ad=0.122 pd=1.13 as=0.122 ps=1.13 w=0.84 l=0.35
X174 hgu_tah_0.VDD hgu_vgen_vref_0.clk hgu_vgen_vref_0.sky130_fd_sc_hd__nand2_1_0.Y hgu_tah_0.VDD sky130_fd_pr__pfet_01v8_hvt ad=0.26 pd=2.52 as=0.135 ps=1.27 w=1 l=0.15
X175 a_16287_4644# a_16113_5036# a_16427_4670# VSS sky130_fd_pr__nfet_01v8 ad=0.0864 pd=0.91 as=0.101 ps=0.99 w=0.64 l=0.15
X176 VDD a_n6292_6446# hgu_comp_flat_0.comp_outn VDD sky130_fd_pr__pfet_01v8 ad=0.139 pd=1.17 as=0.139 ps=1.17 w=0.84 l=0.15
X177 hgu_cdac_half_0.hgu_cdac_8bit_array_3.drv<31:0> hgu_cdac_half_0.d<5> VSS VSS sky130_fd_pr__nfet_01v8_lvt ad=0.0609 pd=0.71 as=0.0609 ps=0.71 w=0.42 l=0.35
X178 hgu_cdac_half_0.hgu_cdac_8bit_array_3.drv<63:0> hgu_cdac_half_0.d<6> hgu_cdac_half_0.VREF hgu_cdac_half_0.VDD sky130_fd_pr__pfet_01v8_lvt ad=0.122 pd=1.13 as=0.122 ps=1.13 w=0.84 l=0.35
X179 hgu_cdac_half_1.VREF hgu_cdac_half_1.d<4> hgu_cdac_half_1.hgu_cdac_8bit_array_3.drv<15:0> hgu_cdac_half_1.VDD sky130_fd_pr__pfet_01v8_lvt ad=0.122 pd=1.13 as=0.122 ps=1.13 w=0.84 l=0.35
X180 hgu_cdac_half_0.VREF hgu_cdac_half_0.db<2> hgu_cdac_half_0.hgu_cdac_8bit_array_2.hgu_cdac_cap_4_0.CBOT hgu_cdac_half_0.VDD sky130_fd_pr__pfet_01v8_lvt ad=0.122 pd=1.13 as=0.122 ps=1.13 w=0.84 l=0.35
X181 a_7176_1868# a_6006_1868# a_7069_2234# VSS sky130_fd_pr__nfet_01v8 ad=0.066 pd=0.745 as=0.0486 ps=0.63 w=0.36 l=0.15
X182 a_6421_6052# a_6516_6052# VSS VSS sky130_fd_pr__nfet_01v8 ad=0.109 pd=1.36 as=0.097 ps=0.975 w=0.42 l=0.15
X183 VSS a_2036_7824# hgu_sarlogic_flat_0.x3.x4.X VSS sky130_fd_pr__nfet_01v8 ad=0.0878 pd=0.92 as=0.0878 ps=0.92 w=0.65 l=0.15
X184 a_7575_7798# a_7843_8008# a_7789_8106# VDD sky130_fd_pr__pfet_01v8_hvt ad=0.147 pd=1.23 as=0.113 ps=1.11 w=0.84 l=0.15
X185 hgu_cdac_half_1.hgu_cdac_8bit_array_2.drv<63:0> hgu_cdac_half_1.db<6> VSS VSS sky130_fd_pr__nfet_01v8_lvt ad=0.0609 pd=0.71 as=0.0609 ps=0.71 w=0.42 l=0.35
X186 VDD a_n2219_8368# hgu_cdac_half_1.d<6> VDD sky130_fd_pr__pfet_01v8_hvt ad=0.135 pd=1.27 as=0.135 ps=1.27 w=1 l=0.15
X187 VDD a_7772_8487# a_8479_8513# VDD sky130_fd_pr__pfet_01v8_hvt ad=0.149 pd=1.33 as=0.166 ps=1.8 w=0.64 l=0.15
X188 a_7888_8513# VDD VSS VSS sky130_fd_pr__nfet_01v8 ad=0.12 pd=1.08 as=0.0588 ps=0.7 w=0.42 l=0.15
X189 a_9222_7824# hgu_sarlogic_flat_0.x3.x4.X VSS VSS sky130_fd_pr__nfet_01v8 ad=0.109 pd=1.36 as=0.097 ps=0.975 w=0.42 l=0.15
X190 a_n3877_7252# hgu_cdac_sw_buffer_3.x3.A VSS VSS sky130_fd_pr__nfet_01v8 ad=0.135 pd=1.56 as=0.0754 ps=0.81 w=0.52 l=0.15
X191 VSS hgu_tah_0.sw_n a_n1334_3698# VSS sky130_fd_pr__nfet_01v8 ad=0.0754 pd=0.81 as=0.135 ps=1.56 w=0.52 l=0.15
X192 hgu_cdac_half_0.d<6> a_1196_n1740# VSS VSS sky130_fd_pr__nfet_01v8 ad=0.0878 pd=0.92 as=0.0878 ps=0.92 w=0.65 l=0.15
X193 VSS hgu_cdac_half_0.db<6> hgu_cdac_half_0.hgu_cdac_8bit_array_2.drv<63:0> VSS sky130_fd_pr__nfet_01v8_lvt ad=0.0609 pd=0.71 as=0.0609 ps=0.71 w=0.42 l=0.35
X194 VSS async_delay_offset hgu_sarlogic_flat_0.x1.x4.x6.SW VSS sky130_fd_pr__nfet_01v8 ad=0.169 pd=1.82 as=0.169 ps=1.82 w=0.65 l=0.15
X195 a_13966_1545# a_13163_1153# VDD VDD sky130_fd_pr__pfet_01v8_hvt ad=0.0787 pd=0.795 as=0.0956 ps=0.875 w=0.42 l=0.15
X196 a_4001_13960# hgu_sarlogic_flat_0.x2.x3.A a_3929_14098# VSS sky130_fd_pr__nfet_01v8 ad=0.122 pd=1.42 as=0.0441 ps=0.63 w=0.42 l=0.15
X197 hgu_sarlogic_flat_0.x2.x2.x3.x5[7].floating hgu_sarlogic_flat_0.x2.x2.x3.x10.Y hgu_sarlogic_flat_0.x2.x2.x3.x9.output_stack VDD sky130_fd_pr__pfet_01v8 ad=0.122 pd=1.42 as=0.101 ps=0.9 w=0.42 l=0.15
X198 VDD a_n4397_8367# hgu_cdac_sw_buffer_3.x11.X VDD sky130_fd_pr__pfet_01v8_hvt ad=0.135 pd=1.27 as=0.135 ps=1.27 w=1 l=0.15
X199 VDD a_17068_4644# a_17775_4670# VDD sky130_fd_pr__pfet_01v8_hvt ad=0.149 pd=1.33 as=0.166 ps=1.8 w=0.64 l=0.15
X200 hgu_cdac_half_0.hgu_cdac_8bit_array_2.drv<63:0> hgu_cdac_half_0.db<6> hgu_cdac_half_0.VREF hgu_cdac_half_0.VDD sky130_fd_pr__pfet_01v8_lvt ad=0.122 pd=1.13 as=0.122 ps=1.13 w=0.84 l=0.35
X201 a_13182_1868# a_13016_1868# VDD VDD sky130_fd_pr__pfet_01v8_hvt ad=0.166 pd=1.8 as=0.0864 ps=0.91 w=0.64 l=0.15
X202 a_n806_2234# a_n1170_1868# a_n890_2234# VDD sky130_fd_pr__pfet_01v8_hvt ad=0.0945 pd=0.87 as=0.0567 ps=0.69 w=0.42 l=0.15
X203 hgu_cdac_half_1.hgu_cdac_8bit_array_3.drv<31:0> hgu_cdac_half_1.d<5> hgu_cdac_half_1.VREF hgu_cdac_half_1.VDD sky130_fd_pr__pfet_01v8_lvt ad=0.122 pd=1.13 as=0.122 ps=1.13 w=0.84 l=0.35
X204 hgu_sarlogic_flat_0.x4.x9.A1 a_3960_3698# VSS VSS sky130_fd_pr__nfet_01v8 ad=0.0878 pd=0.92 as=0.0878 ps=0.92 w=0.65 l=0.15
X205 a_6194_1868# hgu_sarlogic_flat_0.x4.D[4] VSS VSS sky130_fd_pr__nfet_01v8 ad=0.066 pd=0.745 as=0.109 ps=1.36 w=0.42 l=0.15
X206 a_5291_7317# a_4143_6951# a_5205_6951# VDD sky130_fd_pr__pfet_01v8_hvt ad=0.0924 pd=0.86 as=0.0567 ps=0.69 w=0.42 l=0.15
X207 VDD a_17068_6564# a_17775_6606# VDD sky130_fd_pr__pfet_01v8_hvt ad=0.149 pd=1.33 as=0.166 ps=1.8 w=0.64 l=0.15
X208 hgu_cdac_half_0.hgu_cdac_8bit_array_3.drv<31:0> hgu_cdac_half_0.d<5> hgu_cdac_half_0.VREF hgu_cdac_half_0.VDD sky130_fd_pr__pfet_01v8_lvt ad=0.122 pd=1.13 as=0.122 ps=1.13 w=0.84 l=0.35