* NGSPICE file created from hgu_vgen_vref_flat.ext - technology: sky130A

.subckt adc_vcm_generator VDD vcm clk VSS
X0 vcm.t8 VSS.t282 error sky130_fd_pr__cap_var_lvt w=16.4 l=16
X1 vcm.t9 VSS.t280 error sky130_fd_pr__cap_var_lvt w=16.4 l=16
X2 a_4324_38050# a_4147_38050# VSS.t87 VSS.t76 sky130_fd_pr__nfet_01v8 ad=0.169 pd=1.82 as=0.097 ps=0.975 w=0.65 l=0.15
X3 VDD.t57 a_3404_37506# a_3510_37506# VDD.t56 sky130_fd_pr__pfet_01v8_hvt ad=0.141 pd=1.33 as=0.109 ps=1.36 w=0.42 l=0.15
X4 mimtop2 VSS.t39 sky130_fd_pr__cap_mim_m3_1 l=17.2 w=17.2
X5 mimtop1.t7 phi1 vcm.t7 VSS.t329 sky130_fd_pr__nfet_01v8 ad=0.0725 pd=0.79 as=0.145 ps=1.58 w=0.5 l=0.5
X6 phi1_n a_3172_38568# VSS.t317 VSS.t316 sky130_fd_pr__nfet_01v8 ad=0.0878 pd=0.92 as=0.169 ps=1.82 w=0.65 l=0.15
X7 VDD.t113 sky130_fd_sc_hd__inv_1_3.Y sky130_fd_sc_hd__nand2_1_0.Y VDD.t112 sky130_fd_pr__pfet_01v8_hvt ad=0.26 pd=2.52 as=0.135 ps=1.27 w=1 l=0.15
X8 VDD.t99 sky130_fd_sc_hd__nand2_1_0.Y a_2024_38050# VDD.t98 sky130_fd_pr__pfet_01v8_hvt ad=0.141 pd=1.33 as=0.109 ps=1.36 w=0.42 l=0.15
X9 VSS.t46 a_3121_38050# a_3227_38050# VSS.t45 sky130_fd_pr__nfet_01v8 ad=0.097 pd=0.975 as=0.109 ps=1.36 w=0.42 l=0.15
X10 phi2_n a_3172_36936# VSS.t60 VSS.t59 sky130_fd_pr__nfet_01v8 ad=0.0878 pd=0.92 as=0.0878 ps=0.92 w=0.65 l=0.15
X11 vcm.t10 VSS.t278 error sky130_fd_pr__cap_var_lvt w=16.4 l=16
X12 VDD.t143 sky130_fd_sc_hd__inv_1_2.Y sky130_fd_sc_hd__nand2_1_1.Y VDD.t142 sky130_fd_pr__pfet_01v8_hvt ad=0.26 pd=2.52 as=0.135 ps=1.27 w=1 l=0.15
X13 mimtop2 VSS.t38 sky130_fd_pr__cap_mim_m3_1 l=17.2 w=17.2
X14 a_4041_38050# a_3864_38050# VSS.t91 VSS.t90 sky130_fd_pr__nfet_01v8 ad=0.169 pd=1.82 as=0.097 ps=0.975 w=0.65 l=0.15
X15 a_3121_37506# a_2944_37506# VDD.t11 VDD.t10 sky130_fd_pr__pfet_01v8_hvt ad=0.26 pd=2.52 as=0.141 ps=1.33 w=1 l=0.15
X16 VDD.t144 VSS.t42 sky130_fd_pr__cap_mim_m3_1 l=17.2 w=17.2
X17 vcm.t11 VSS.t276 error sky130_fd_pr__cap_var_lvt w=16.4 l=16
X18 VDD.t121 sky130_fd_sc_hd__nand2_1_1.Y a_2024_37506# VDD.t120 sky130_fd_pr__pfet_01v8_hvt ad=0.141 pd=1.33 as=0.109 ps=1.36 w=0.42 l=0.15
X19 vcm.t12 VSS.t274 error sky130_fd_pr__cap_var_lvt w=16.4 l=16
X20 a_2201_37506# a_2024_37506# VSS.t319 VSS.t51 sky130_fd_pr__nfet_01v8 ad=0.169 pd=1.82 as=0.097 ps=0.975 w=0.65 l=0.15
X21 vcm.t13 VSS.t272 error sky130_fd_pr__cap_var_lvt w=16.4 l=16
X22 VSS.t75 a_2201_37506# a_2307_37506# VSS.t74 sky130_fd_pr__nfet_01v8 ad=0.097 pd=0.975 as=0.109 ps=1.36 w=0.42 l=0.15
X23 VSS.t58 a_3172_36936# phi2_n VSS.t57 sky130_fd_pr__nfet_01v8 ad=0.0878 pd=0.92 as=0.0878 ps=0.92 w=0.65 l=0.15
X24 vcm.t14 VSS.t270 error sky130_fd_pr__cap_var_lvt w=16.4 l=16
X25 sky130_fd_sc_hd__nand2_1_1.Y sky130_fd_sc_hd__inv_1_4.Y VDD.t97 VDD.t96 sky130_fd_pr__pfet_01v8_hvt ad=0.135 pd=1.27 as=0.26 ps=2.52 w=1 l=0.15
X26 mimtop1.t8 mimbot1.t41 sky130_fd_pr__cap_mim_m3_1 l=17.2 w=17.2
X27 phi1 a_3724_38568# VSS.t303 VSS.t302 sky130_fd_pr__nfet_01v8 ad=0.0878 pd=0.92 as=0.169 ps=1.82 w=0.65 l=0.15
X28 VSS.t301 a_3724_38568# phi1 VSS.t300 sky130_fd_pr__nfet_01v8 ad=0.0878 pd=0.92 as=0.0878 ps=0.92 w=0.65 l=0.15
X29 VSS.t119 a_3404_38050# a_3510_38050# VSS.t96 sky130_fd_pr__nfet_01v8 ad=0.097 pd=0.975 as=0.109 ps=1.36 w=0.42 l=0.15
X30 sky130_fd_sc_hd__dlymetal6s6s_1_4.A a_2590_37506# VDD.t35 VDD.t34 sky130_fd_pr__pfet_01v8_hvt ad=0.26 pd=2.52 as=0.141 ps=1.33 w=1 l=0.15
X31 mimtop2 VSS.t37 sky130_fd_pr__cap_mim_m3_1 l=17.2 w=17.2
X32 mimtop1.t9 mimbot1.t40 sky130_fd_pr__cap_mim_m3_1 l=17.2 w=17.2
X33 vcm.t15 VSS.t268 error sky130_fd_pr__cap_var_lvt w=16.4 l=16
X34 mimtop2 VSS.t36 sky130_fd_pr__cap_mim_m3_1 l=17.2 w=17.2
X35 mimtop1.t10 mimbot1.t39 sky130_fd_pr__cap_mim_m3_1 l=17.2 w=17.2
X36 mimtop1.t11 mimbot1.t38 sky130_fd_pr__cap_mim_m3_1 l=17.2 w=17.2
X37 mimtop1.t12 mimbot1.t37 sky130_fd_pr__cap_mim_m3_1 l=17.2 w=17.2
X38 vcm.t16 VSS.t266 error sky130_fd_pr__cap_var_lvt w=16.4 l=16
X39 a_3121_38050# a_2944_38050# VSS.t295 VSS.t49 sky130_fd_pr__nfet_01v8 ad=0.169 pd=1.82 as=0.097 ps=0.975 w=0.65 l=0.15
X40 VSS.t294 sky130_fd_sc_hd__nand2_1_0.Y a_2024_38050# VSS.t293 sky130_fd_pr__nfet_01v8 ad=0.097 pd=0.975 as=0.109 ps=1.36 w=0.42 l=0.15
X41 mimtop2 VSS.t35 sky130_fd_pr__cap_mim_m3_1 l=17.2 w=17.2
X42 mimtop2 VSS.t34 sky130_fd_pr__cap_mim_m3_1 l=17.2 w=17.2
X43 vcm.t17 VSS.t264 error sky130_fd_pr__cap_var_lvt w=16.4 l=16
X44 VSS.t290 a_2484_37506# a_2590_37506# VSS.t288 sky130_fd_pr__nfet_01v8 ad=0.097 pd=0.975 as=0.109 ps=1.36 w=0.42 l=0.15
X45 mimtop2 VSS.t33 sky130_fd_pr__cap_mim_m3_1 l=17.2 w=17.2
X46 VSS.t118 a_3724_36936# phi2 VSS.t117 sky130_fd_pr__nfet_01v8 ad=0.0878 pd=0.92 as=0.0878 ps=0.92 w=0.65 l=0.15
X47 vcm.t18 VSS.t262 error sky130_fd_pr__cap_var_lvt w=16.4 l=16
X48 vcm.t19 VSS.t260 error sky130_fd_pr__cap_var_lvt w=16.4 l=16
X49 phi1_n a_3172_38568# VSS.t315 VSS.t314 sky130_fd_pr__nfet_01v8 ad=0.0878 pd=0.92 as=0.0878 ps=0.92 w=0.65 l=0.15
X50 VDD.t29 sky130_fd_sc_hd__inv_1_2.A sky130_fd_sc_hd__inv_1_2.Y VDD.t28 sky130_fd_pr__pfet_01v8_hvt ad=0.26 pd=2.52 as=0.26 ps=2.52 w=1 l=0.15
X51 sky130_fd_sc_hd__dlymetal6s6s_1_2.A a_2590_38050# VSS.t109 VSS.t72 sky130_fd_pr__nfet_01v8 ad=0.169 pd=1.82 as=0.097 ps=0.975 w=0.65 l=0.15
X52 vcm.t20 VSS.t258 error sky130_fd_pr__cap_var_lvt w=16.4 l=16
X53 VSS.t328 phi1 mimbot1.t47 VSS.t327 sky130_fd_pr__nfet_01v8 ad=0.145 pd=1.58 as=0.0725 ps=0.79 w=0.5 l=0.5
X54 mimtop1.t13 mimbot1.t36 sky130_fd_pr__cap_mim_m3_1 l=17.2 w=17.2
X55 mimtop2 VSS.t32 sky130_fd_pr__cap_mim_m3_1 l=17.2 w=17.2
X56 vcm.t21 VSS.t256 error sky130_fd_pr__cap_var_lvt w=16.4 l=16
X57 VDD.t119 phi2_n mimtop1.t5 VDD.t118 sky130_fd_pr__pfet_01v8 ad=0.0725 pd=0.79 as=0.145 ps=1.58 w=0.5 l=0.5
X58 vcm.t22 VSS.t254 error sky130_fd_pr__cap_var_lvt w=16.4 l=16
X59 mimtop2 VSS.t31 sky130_fd_pr__cap_mim_m3_1 l=17.2 w=17.2
X60 mimtop1.t14 mimbot1.t35 sky130_fd_pr__cap_mim_m3_1 l=17.2 w=17.2
X61 a_3172_38568# sky130_fd_sc_hd__inv_1_2.Y VDD.t141 VDD.t140 sky130_fd_pr__pfet_01v8_hvt ad=0.26 pd=2.52 as=0.135 ps=1.27 w=1 l=0.15
X62 vcm.t23 VSS.t252 error sky130_fd_pr__cap_var_lvt w=16.4 l=16
X63 vcm.t24 VSS.t250 error sky130_fd_pr__cap_var_lvt w=16.4 l=16
X64 mimtop1.t15 mimbot1.t34 sky130_fd_pr__cap_mim_m3_1 l=17.2 w=17.2
X65 mimtop1.t16 mimbot1.t33 sky130_fd_pr__cap_mim_m3_1 l=17.2 w=17.2
X66 VSS.t313 a_3172_38568# phi1_n VSS.t312 sky130_fd_pr__nfet_01v8 ad=0.0878 pd=0.92 as=0.0878 ps=0.92 w=0.65 l=0.15
X67 sky130_fd_sc_hd__dlymetal6s6s_1_3.A a_3510_38050# VDD.t133 VDD.t132 sky130_fd_pr__pfet_01v8_hvt ad=0.26 pd=2.52 as=0.141 ps=1.33 w=1 l=0.15
X68 VSS.t56 a_3172_36936# phi2_n VSS.t55 sky130_fd_pr__nfet_01v8 ad=0.0878 pd=0.92 as=0.0878 ps=0.92 w=0.65 l=0.15
X69 mimtop2 VSS.t30 sky130_fd_pr__cap_mim_m3_1 l=17.2 w=17.2
X70 vcm.t25 VSS.t248 error sky130_fd_pr__cap_var_lvt w=16.4 l=16
X71 mimtop2 VSS.t29 sky130_fd_pr__cap_mim_m3_1 l=17.2 w=17.2
X72 VDD.t145 VSS.t43 sky130_fd_pr__cap_mim_m3_1 l=17.2 w=17.2
X73 VDD.t146 VSS.t105 error sky130_fd_pr__cap_var_lvt w=16.4 l=16
X74 mimtop2 VSS.t28 sky130_fd_pr__cap_mim_m3_1 l=17.2 w=17.2
X75 vcm.t26 VSS.t246 error sky130_fd_pr__cap_var_lvt w=16.4 l=16
X76 VSS.t86 a_4041_37506# a_4147_37506# VSS.t85 sky130_fd_pr__nfet_01v8 ad=0.097 pd=0.975 as=0.109 ps=1.36 w=0.42 l=0.15
X77 mimtop1.t4 phi2_n VDD.t117 VDD.t116 sky130_fd_pr__pfet_01v8 ad=0.145 pd=1.58 as=0.0725 ps=0.79 w=0.5 l=0.5
X78 VDD.t147 VSS.t107 error sky130_fd_pr__cap_var_lvt w=16.4 l=16
X79 sky130_fd_sc_hd__inv_1_1.A a_4430_37506# VDD.t65 VDD.t64 sky130_fd_pr__pfet_01v8_hvt ad=0.26 pd=2.52 as=0.141 ps=1.33 w=1 l=0.15
X80 vcm.t27 VSS.t244 error sky130_fd_pr__cap_var_lvt w=16.4 l=16
X81 sky130_fd_sc_hd__dlymetal6s6s_1_5.A a_3510_37506# VSS.t99 VSS.t98 sky130_fd_pr__nfet_01v8 ad=0.169 pd=1.82 as=0.097 ps=0.975 w=0.65 l=0.15
X82 phi2 a_3724_36936# VDD.t77 VDD.t76 sky130_fd_pr__pfet_01v8_hvt ad=0.135 pd=1.27 as=0.135 ps=1.27 w=1 l=0.15
X83 mimtop1.t17 mimbot1.t32 sky130_fd_pr__cap_mim_m3_1 l=17.2 w=17.2
X84 mimbot1.t45 phi2_n mimtop2 VDD.t115 sky130_fd_pr__pfet_01v8 ad=0.145 pd=1.58 as=0.0725 ps=0.79 w=0.5 l=0.5
X85 vcm.t28 VSS.t242 error sky130_fd_pr__cap_var_lvt w=16.4 l=16
X86 VSS.t299 a_3724_38568# phi1 VSS.t298 sky130_fd_pr__nfet_01v8 ad=0.0878 pd=0.92 as=0.0878 ps=0.92 w=0.65 l=0.15
X87 mimtop2 VSS.t27 sky130_fd_pr__cap_mim_m3_1 l=17.2 w=17.2
X88 vcm.t29 VSS.t240 error sky130_fd_pr__cap_var_lvt w=16.4 l=16
X89 vcm.t30 VSS.t238 error sky130_fd_pr__cap_var_lvt w=16.4 l=16
X90 vcm.t31 VSS.t236 error sky130_fd_pr__cap_var_lvt w=16.4 l=16
X91 mimtop1.t18 mimbot1.t31 sky130_fd_pr__cap_mim_m3_1 l=17.2 w=17.2
X92 mimtop1.t19 mimbot1.t30 sky130_fd_pr__cap_mim_m3_1 l=17.2 w=17.2
X93 VSS.t84 a_4324_37506# a_4430_37506# VSS.t83 sky130_fd_pr__nfet_01v8 ad=0.097 pd=0.975 as=0.109 ps=1.36 w=0.42 l=0.15
X94 a_3724_36936# sky130_fd_sc_hd__inv_1_3.A VDD.t33 VDD.t32 sky130_fd_pr__pfet_01v8_hvt ad=0.26 pd=2.52 as=0.135 ps=1.27 w=1 l=0.15
X95 mimtop2 VSS.t26 sky130_fd_pr__cap_mim_m3_1 l=17.2 w=17.2
X96 vcm.t32 VSS.t234 error sky130_fd_pr__cap_var_lvt w=16.4 l=16
X97 VDD.t25 sky130_fd_sc_hd__inv_1_1.A sky130_fd_sc_hd__inv_1_3.A VDD.t24 sky130_fd_pr__pfet_01v8_hvt ad=0.26 pd=2.52 as=0.26 ps=2.52 w=1 l=0.15
X98 vcm.t33 VSS.t232 error sky130_fd_pr__cap_var_lvt w=16.4 l=16
X99 mimtop1.t20 mimbot1.t29 sky130_fd_pr__cap_mim_m3_1 l=17.2 w=17.2
X100 a_2484_38050# a_2307_38050# VDD.t3 VDD.t2 sky130_fd_pr__pfet_01v8_hvt ad=0.26 pd=2.52 as=0.141 ps=1.33 w=1 l=0.15
X101 mimtop2 VSS.t25 sky130_fd_pr__cap_mim_m3_1 l=17.2 w=17.2
X102 mimtop2 VSS.t24 sky130_fd_pr__cap_mim_m3_1 l=17.2 w=17.2
X103 sky130_fd_sc_hd__inv_1_0.A a_4430_38050# VSS.t110 VSS.t103 sky130_fd_pr__nfet_01v8 ad=0.169 pd=1.82 as=0.097 ps=0.975 w=0.65 l=0.15
X104 mimtop2 phi2 mimbot1.t1 VSS.t82 sky130_fd_pr__nfet_01v8 ad=0.0725 pd=0.79 as=0.145 ps=1.58 w=0.5 l=0.5
X105 vcm.t34 VSS.t230 error sky130_fd_pr__cap_var_lvt w=16.4 l=16
X106 VDD.t91 a_2201_38050# a_2307_38050# VDD.t90 sky130_fd_pr__pfet_01v8_hvt ad=0.141 pd=1.33 as=0.109 ps=1.36 w=0.42 l=0.15
X107 VDD.t148 VSS.t92 error sky130_fd_pr__cap_var_lvt w=16.4 l=16
X108 vcm.t35 VSS.t228 error sky130_fd_pr__cap_var_lvt w=16.4 l=16
X109 mimtop2 VSS.t23 sky130_fd_pr__cap_mim_m3_1 l=17.2 w=17.2
X110 vcm.t36 VSS.t226 error sky130_fd_pr__cap_var_lvt w=16.4 l=16
X111 vcm.t37 VSS.t224 error sky130_fd_pr__cap_var_lvt w=16.4 l=16
X112 a_1794_38050# clk.t0 sky130_fd_sc_hd__nand2_1_0.Y VSS.t44 sky130_fd_pr__nfet_01v8 ad=0.0878 pd=0.92 as=0.169 ps=1.82 w=0.65 l=0.15
X113 a_3404_37506# a_3227_37506# VDD.t7 VDD.t6 sky130_fd_pr__pfet_01v8_hvt ad=0.26 pd=2.52 as=0.141 ps=1.33 w=1 l=0.15
X114 VSS.t311 a_3172_38568# phi1_n VSS.t310 sky130_fd_pr__nfet_01v8 ad=0.0878 pd=0.92 as=0.0878 ps=0.92 w=0.65 l=0.15
X115 VDD.t37 a_2201_37506# a_2307_37506# VDD.t36 sky130_fd_pr__pfet_01v8_hvt ad=0.141 pd=1.33 as=0.109 ps=1.36 w=0.42 l=0.15
X116 a_2484_37506# a_2307_37506# VSS.t61 VSS.t40 sky130_fd_pr__nfet_01v8 ad=0.169 pd=1.82 as=0.097 ps=0.975 w=0.65 l=0.15
X117 VSS.t123 sky130_fd_sc_hd__dlymetal6s6s_1_5.A a_3864_37506# VSS.t122 sky130_fd_pr__nfet_01v8 ad=0.097 pd=0.975 as=0.109 ps=1.36 w=0.42 l=0.15
X118 vcm.t38 VSS.t222 error sky130_fd_pr__cap_var_lvt w=16.4 l=16
X119 mimtop2 VSS.t22 sky130_fd_pr__cap_mim_m3_1 l=17.2 w=17.2
X120 VSS.t71 sky130_fd_sc_hd__inv_1_3.A sky130_fd_sc_hd__inv_1_3.Y VSS.t70 sky130_fd_pr__nfet_01v8 ad=0.169 pd=1.82 as=0.169 ps=1.82 w=0.65 l=0.15
X121 vcm.t39 VSS.t220 error sky130_fd_pr__cap_var_lvt w=16.4 l=16
X122 vcm.t40 VSS.t218 error sky130_fd_pr__cap_var_lvt w=16.4 l=16
X123 mimtop2 VSS.t21 sky130_fd_pr__cap_mim_m3_1 l=17.2 w=17.2
X124 VDD.t93 a_2484_38050# a_2590_38050# VDD.t92 sky130_fd_pr__pfet_01v8_hvt ad=0.141 pd=1.33 as=0.109 ps=1.36 w=0.42 l=0.15
X125 phi2_n a_3172_36936# VDD.t21 VDD.t20 sky130_fd_pr__pfet_01v8_hvt ad=0.135 pd=1.27 as=0.26 ps=2.52 w=1 l=0.15
X126 mimtop1.t21 mimbot1.t28 sky130_fd_pr__cap_mim_m3_1 l=17.2 w=17.2
X127 mimtop1.t22 mimbot1.t27 sky130_fd_pr__cap_mim_m3_1 l=17.2 w=17.2
X128 vcm.t41 VSS.t216 error sky130_fd_pr__cap_var_lvt w=16.4 l=16
X129 vcm.t42 VSS.t214 error sky130_fd_pr__cap_var_lvt w=16.4 l=16
X130 vcm.t43 VSS.t212 error sky130_fd_pr__cap_var_lvt w=16.4 l=16
X131 mimtop1.t23 mimbot1.t26 sky130_fd_pr__cap_mim_m3_1 l=17.2 w=17.2
X132 vcm.t44 VSS.t210 error sky130_fd_pr__cap_var_lvt w=16.4 l=16
X133 a_3172_36936# sky130_fd_sc_hd__inv_1_3.Y VSS.t307 VSS.t306 sky130_fd_pr__nfet_01v8 ad=0.169 pd=1.82 as=0.0878 ps=0.92 w=0.65 l=0.15
X134 vcm.t45 VSS.t208 error sky130_fd_pr__cap_var_lvt w=16.4 l=16
X135 mimtop2 VSS.t20 sky130_fd_pr__cap_mim_m3_1 l=17.2 w=17.2
X136 vcm.t3 phi1_n mimtop1.t3 VDD.t89 sky130_fd_pr__pfet_01v8 ad=0.145 pd=1.58 as=0.0725 ps=0.79 w=0.5 l=0.5
X137 a_3404_38050# a_3227_38050# VSS.t78 VSS.t47 sky130_fd_pr__nfet_01v8 ad=0.169 pd=1.82 as=0.097 ps=0.975 w=0.65 l=0.15
X138 VDD.t95 a_2484_37506# a_2590_37506# VDD.t94 sky130_fd_pr__pfet_01v8_hvt ad=0.141 pd=1.33 as=0.109 ps=1.36 w=0.42 l=0.15
X139 vcm.t46 VSS.t206 error sky130_fd_pr__cap_var_lvt w=16.4 l=16
X140 mimtop2 VSS.t19 sky130_fd_pr__cap_mim_m3_1 l=17.2 w=17.2
X141 mimtop1.t24 mimbot1.t25 sky130_fd_pr__cap_mim_m3_1 l=17.2 w=17.2
X142 VSS.t287 a_2201_38050# a_2307_38050# VSS.t74 sky130_fd_pr__nfet_01v8 ad=0.097 pd=0.975 as=0.109 ps=1.36 w=0.42 l=0.15
X143 vcm.t47 VSS.t204 error sky130_fd_pr__cap_var_lvt w=16.4 l=16
X144 VSS.t309 sky130_fd_sc_hd__dlymetal6s6s_1_4.A a_2944_37506# VSS.t101 sky130_fd_pr__nfet_01v8 ad=0.097 pd=0.975 as=0.109 ps=1.36 w=0.42 l=0.15
X145 a_2201_37506# a_2024_37506# VDD.t135 VDD.t134 sky130_fd_pr__pfet_01v8_hvt ad=0.26 pd=2.52 as=0.141 ps=1.33 w=1 l=0.15
X146 vcm.t48 VSS.t202 error sky130_fd_pr__cap_var_lvt w=16.4 l=16
X147 phi2 a_3724_36936# VDD.t75 VDD.t74 sky130_fd_pr__pfet_01v8_hvt ad=0.135 pd=1.27 as=0.26 ps=2.52 w=1 l=0.15
X148 mimtop2 VSS.t18 sky130_fd_pr__cap_mim_m3_1 l=17.2 w=17.2
X149 vcm.t49 VSS.t200 error sky130_fd_pr__cap_var_lvt w=16.4 l=16
X150 vcm.t50 VSS.t198 error sky130_fd_pr__cap_var_lvt w=16.4 l=16
X151 VDD.t73 a_3724_36936# phi2 VDD.t72 sky130_fd_pr__pfet_01v8_hvt ad=0.135 pd=1.27 as=0.135 ps=1.27 w=1 l=0.15
X152 vcm.t51 VSS.t196 error sky130_fd_pr__cap_var_lvt w=16.4 l=16
X153 a_4324_38050# a_4147_38050# VDD.t49 VDD.t48 sky130_fd_pr__pfet_01v8_hvt ad=0.26 pd=2.52 as=0.141 ps=1.33 w=1 l=0.15
X154 mimtop1.t25 mimbot1.t24 sky130_fd_pr__cap_mim_m3_1 l=17.2 w=17.2
X155 vcm.t52 VSS.t194 error sky130_fd_pr__cap_var_lvt w=16.4 l=16
X156 VDD.t83 a_4041_38050# a_4147_38050# VDD.t82 sky130_fd_pr__pfet_01v8_hvt ad=0.141 pd=1.33 as=0.109 ps=1.36 w=0.42 l=0.15
X157 mimtop1.t26 mimbot1.t23 sky130_fd_pr__cap_mim_m3_1 l=17.2 w=17.2
X158 mimtop1.t27 mimbot1.t22 sky130_fd_pr__cap_mim_m3_1 l=17.2 w=17.2
X159 vcm.t53 VSS.t192 error sky130_fd_pr__cap_var_lvt w=16.4 l=16
X160 a_4041_38050# a_3864_38050# VDD.t53 VDD.t52 sky130_fd_pr__pfet_01v8_hvt ad=0.26 pd=2.52 as=0.141 ps=1.33 w=1 l=0.15
X161 VSS.t289 a_2484_38050# a_2590_38050# VSS.t288 sky130_fd_pr__nfet_01v8 ad=0.097 pd=0.975 as=0.109 ps=1.36 w=0.42 l=0.15
X162 mimtop2 VSS.t17 sky130_fd_pr__cap_mim_m3_1 l=17.2 w=17.2
X163 mimtop2 VSS.t16 sky130_fd_pr__cap_mim_m3_1 l=17.2 w=17.2
X164 vcm.t54 VSS.t190 error sky130_fd_pr__cap_var_lvt w=16.4 l=16
X165 VSS.t67 sky130_fd_sc_hd__inv_1_2.A sky130_fd_sc_hd__inv_1_2.Y VSS.t66 sky130_fd_pr__nfet_01v8 ad=0.169 pd=1.82 as=0.169 ps=1.82 w=0.65 l=0.15
X166 mimtop2 VSS.t15 sky130_fd_pr__cap_mim_m3_1 l=17.2 w=17.2
X167 mimtop2 VSS.t14 sky130_fd_pr__cap_mim_m3_1 l=17.2 w=17.2
X168 mimbot1.t46 phi1 VSS.t326 VSS.t325 sky130_fd_pr__nfet_01v8 ad=0.0725 pd=0.79 as=0.145 ps=1.58 w=0.5 l=0.5
X169 mimtop2 phi1 vcm.t5 VSS.t324 sky130_fd_pr__nfet_01v8 ad=0.0725 pd=0.79 as=0.145 ps=1.58 w=0.5 l=0.5
X170 a_2201_38050# a_2024_38050# VSS.t52 VSS.t51 sky130_fd_pr__nfet_01v8 ad=0.169 pd=1.82 as=0.097 ps=0.975 w=0.65 l=0.15
X171 VDD.t47 a_4041_37506# a_4147_37506# VDD.t46 sky130_fd_pr__pfet_01v8_hvt ad=0.141 pd=1.33 as=0.109 ps=1.36 w=0.42 l=0.15
X172 vcm.t55 VSS.t188 error sky130_fd_pr__cap_var_lvt w=16.4 l=16
X173 phi1 a_3724_38568# VDD.t109 VDD.t108 sky130_fd_pr__pfet_01v8_hvt ad=0.135 pd=1.27 as=0.135 ps=1.27 w=1 l=0.15
X174 sky130_fd_sc_hd__inv_1_4.Y clk.t1 VSS.t121 VSS.t120 sky130_fd_pr__nfet_01v8 ad=0.169 pd=1.82 as=0.169 ps=1.82 w=0.65 l=0.15
X175 a_4324_37506# a_4147_37506# VSS.t77 VSS.t76 sky130_fd_pr__nfet_01v8 ad=0.169 pd=1.82 as=0.097 ps=0.975 w=0.65 l=0.15
X176 phi2_n a_3172_36936# VDD.t19 VDD.t18 sky130_fd_pr__pfet_01v8_hvt ad=0.135 pd=1.27 as=0.135 ps=1.27 w=1 l=0.15
X177 vcm.t56 VSS.t186 error sky130_fd_pr__cap_var_lvt w=16.4 l=16
X178 VSS.t305 sky130_fd_sc_hd__inv_1_3.Y a_1794_38050# VSS.t304 sky130_fd_pr__nfet_01v8 ad=0.169 pd=1.82 as=0.0878 ps=0.92 w=0.65 l=0.15
X179 VDD.t149 VSS.t94 sky130_fd_pr__cap_mim_m3_1 l=17.2 w=17.2
X180 vcm.t57 VSS.t184 error sky130_fd_pr__cap_var_lvt w=16.4 l=16
X181 a_3172_38568# sky130_fd_sc_hd__inv_1_2.Y VSS.t332 VSS.t331 sky130_fd_pr__nfet_01v8 ad=0.169 pd=1.82 as=0.0878 ps=0.92 w=0.65 l=0.15
X182 VDD.t55 a_4324_38050# a_4430_38050# VDD.t54 sky130_fd_pr__pfet_01v8_hvt ad=0.141 pd=1.33 as=0.109 ps=1.36 w=0.42 l=0.15
X183 a_4041_37506# a_3864_37506# VSS.t320 VSS.t90 sky130_fd_pr__nfet_01v8 ad=0.169 pd=1.82 as=0.097 ps=0.975 w=0.65 l=0.15
X184 a_3724_38568# sky130_fd_sc_hd__inv_1_2.A VDD.t27 VDD.t26 sky130_fd_pr__pfet_01v8_hvt ad=0.26 pd=2.52 as=0.135 ps=1.27 w=1 l=0.15
X185 vcm.t4 phi1 mimtop2 VSS.t323 sky130_fd_pr__nfet_01v8 ad=0.145 pd=1.58 as=0.0725 ps=0.79 w=0.5 l=0.5
X186 VDD.t51 sky130_fd_sc_hd__inv_1_0.A sky130_fd_sc_hd__inv_1_2.A VDD.t50 sky130_fd_pr__pfet_01v8_hvt ad=0.26 pd=2.52 as=0.26 ps=2.52 w=1 l=0.15
X187 vcm.t58 VSS.t182 error sky130_fd_pr__cap_var_lvt w=16.4 l=16
X188 a_3121_38050# a_2944_38050# VDD.t101 VDD.t100 sky130_fd_pr__pfet_01v8_hvt ad=0.26 pd=2.52 as=0.141 ps=1.33 w=1 l=0.15
X189 vcm.t59 VSS.t180 error sky130_fd_pr__cap_var_lvt w=16.4 l=16
X190 mimtop1.t28 mimbot1.t21 sky130_fd_pr__cap_mim_m3_1 l=17.2 w=17.2
X191 VDD.t17 a_3172_36936# phi2_n VDD.t16 sky130_fd_pr__pfet_01v8_hvt ad=0.135 pd=1.27 as=0.135 ps=1.27 w=1 l=0.15
X192 mimtop2 VSS.t13 sky130_fd_pr__cap_mim_m3_1 l=17.2 w=17.2
X193 mimtop1.t29 mimbot1.t20 sky130_fd_pr__cap_mim_m3_1 l=17.2 w=17.2
X194 mimtop1.t30 mimbot1.t19 sky130_fd_pr__cap_mim_m3_1 l=17.2 w=17.2
X195 VDD.t45 a_4324_37506# a_4430_37506# VDD.t44 sky130_fd_pr__pfet_01v8_hvt ad=0.141 pd=1.33 as=0.109 ps=1.36 w=0.42 l=0.15
X196 vcm.t60 VSS.t178 error sky130_fd_pr__cap_var_lvt w=16.4 l=16
X197 mimtop1.t31 mimbot1.t18 sky130_fd_pr__cap_mim_m3_1 l=17.2 w=17.2
X198 VSS.t286 phi1_n mimbot1.t43 VDD.t88 sky130_fd_pr__pfet_01v8 ad=0.145 pd=1.58 as=0.0725 ps=0.79 w=0.5 l=0.5
X199 VSS.t284 a_4041_38050# a_4147_38050# VSS.t85 sky130_fd_pr__nfet_01v8 ad=0.097 pd=0.975 as=0.109 ps=1.36 w=0.42 l=0.15
X200 mimtop2 VSS.t12 sky130_fd_pr__cap_mim_m3_1 l=17.2 w=17.2
X201 mimtop2 VSS.t11 sky130_fd_pr__cap_mim_m3_1 l=17.2 w=17.2
X202 mimtop2 VSS.t10 sky130_fd_pr__cap_mim_m3_1 l=17.2 w=17.2
X203 vcm.t61 VSS.t176 error sky130_fd_pr__cap_var_lvt w=16.4 l=16
X204 vcm.t62 VSS.t174 error sky130_fd_pr__cap_var_lvt w=16.4 l=16
X205 mimtop1.t32 mimbot1.t17 sky130_fd_pr__cap_mim_m3_1 l=17.2 w=17.2
X206 mimtop2 phi1_n vcm.t1 VDD.t87 sky130_fd_pr__pfet_01v8 ad=0.0725 pd=0.79 as=0.145 ps=1.58 w=0.5 l=0.5
X207 sky130_fd_sc_hd__dlymetal6s6s_1_2.A a_2590_38050# VDD.t67 VDD.t66 sky130_fd_pr__pfet_01v8_hvt ad=0.26 pd=2.52 as=0.141 ps=1.33 w=1 l=0.15
X208 sky130_fd_sc_hd__nand2_1_1.Y sky130_fd_sc_hd__inv_1_2.Y a_1798_37826# VSS.t330 sky130_fd_pr__nfet_01v8 ad=0.169 pd=1.82 as=0.0878 ps=0.92 w=0.65 l=0.15
X209 VDD.t139 sky130_fd_sc_hd__dlymetal6s6s_1_3.A a_3864_38050# VDD.t138 sky130_fd_pr__pfet_01v8_hvt ad=0.141 pd=1.33 as=0.109 ps=1.36 w=0.42 l=0.15
X210 a_3121_37506# a_2944_37506# VSS.t50 VSS.t49 sky130_fd_pr__nfet_01v8 ad=0.169 pd=1.82 as=0.097 ps=0.975 w=0.65 l=0.15
X211 VDD.t43 phi2 mimtop1.t1 VSS.t81 sky130_fd_pr__nfet_01v8 ad=0.0725 pd=0.79 as=0.145 ps=1.58 w=0.5 l=0.5
X212 vcm.t63 VSS.t172 error sky130_fd_pr__cap_var_lvt w=16.4 l=16
X213 VSS.t100 a_3121_37506# a_3227_37506# VSS.t45 sky130_fd_pr__nfet_01v8 ad=0.097 pd=0.975 as=0.109 ps=1.36 w=0.42 l=0.15
X214 vcm.t6 phi1 mimtop1.t6 VSS.t322 sky130_fd_pr__nfet_01v8 ad=0.145 pd=1.58 as=0.0725 ps=0.79 w=0.5 l=0.5
X215 phi1_n a_3172_38568# VDD.t131 VDD.t130 sky130_fd_pr__pfet_01v8_hvt ad=0.135 pd=1.27 as=0.26 ps=2.52 w=1 l=0.15
X216 VDD.t71 a_3724_36936# phi2 VDD.t70 sky130_fd_pr__pfet_01v8_hvt ad=0.135 pd=1.27 as=0.135 ps=1.27 w=1 l=0.15
X217 vcm.t64 VSS.t170 error sky130_fd_pr__cap_var_lvt w=16.4 l=16
X218 VSS.t95 a_4324_38050# a_4430_38050# VSS.t83 sky130_fd_pr__nfet_01v8 ad=0.097 pd=0.975 as=0.109 ps=1.36 w=0.42 l=0.15
X219 sky130_fd_sc_hd__dlymetal6s6s_1_5.A a_3510_37506# VDD.t59 VDD.t58 sky130_fd_pr__pfet_01v8_hvt ad=0.26 pd=2.52 as=0.141 ps=1.33 w=1 l=0.15
X220 VDD.t81 sky130_fd_sc_hd__dlymetal6s6s_1_5.A a_3864_37506# VDD.t80 sky130_fd_pr__pfet_01v8_hvt ad=0.141 pd=1.33 as=0.109 ps=1.36 w=0.42 l=0.15
X221 vcm.t65 VSS.t168 error sky130_fd_pr__cap_var_lvt w=16.4 l=16
X222 mimtop1.t33 mimbot1.t16 sky130_fd_pr__cap_mim_m3_1 l=17.2 w=17.2
X223 vcm.t0 phi1_n mimtop2 VDD.t86 sky130_fd_pr__pfet_01v8 ad=0.145 pd=1.58 as=0.0725 ps=0.79 w=0.5 l=0.5
X224 a_1798_37826# sky130_fd_sc_hd__inv_1_4.Y VSS.t292 VSS.t291 sky130_fd_pr__nfet_01v8 ad=0.0878 pd=0.92 as=0.169 ps=1.82 w=0.65 l=0.15
X225 sky130_fd_sc_hd__dlymetal6s6s_1_4.A a_2590_37506# VSS.t73 VSS.t72 sky130_fd_pr__nfet_01v8 ad=0.169 pd=1.82 as=0.097 ps=0.975 w=0.65 l=0.15
X226 mimtop1.t0 phi2 VDD.t42 VSS.t80 sky130_fd_pr__nfet_01v8 ad=0.145 pd=1.58 as=0.0725 ps=0.79 w=0.5 l=0.5
X227 vcm.t66 VSS.t166 error sky130_fd_pr__cap_var_lvt w=16.4 l=16
X228 mimtop1.t34 mimbot1.t15 sky130_fd_pr__cap_mim_m3_1 l=17.2 w=17.2
X229 vcm.t67 VSS.t164 error sky130_fd_pr__cap_var_lvt w=16.4 l=16
X230 mimtop2 VSS.t9 sky130_fd_pr__cap_mim_m3_1 l=17.2 w=17.2
X231 VDD.t63 sky130_fd_sc_hd__dlymetal6s6s_1_2.A a_2944_38050# VDD.t62 sky130_fd_pr__pfet_01v8_hvt ad=0.141 pd=1.33 as=0.109 ps=1.36 w=0.42 l=0.15
X232 mimbot1.t0 phi2 mimtop2 VSS.t79 sky130_fd_pr__nfet_01v8 ad=0.145 pd=1.58 as=0.0725 ps=0.79 w=0.5 l=0.5
X233 mimtop2 VSS.t8 sky130_fd_pr__cap_mim_m3_1 l=17.2 w=17.2
X234 VSS.t97 a_3404_37506# a_3510_37506# VSS.t96 sky130_fd_pr__nfet_01v8 ad=0.097 pd=0.975 as=0.109 ps=1.36 w=0.42 l=0.15
X235 mimtop1.t35 mimbot1.t14 sky130_fd_pr__cap_mim_m3_1 l=17.2 w=17.2
X236 vcm.t68 VSS.t162 error sky130_fd_pr__cap_var_lvt w=16.4 l=16
X237 phi1 a_3724_38568# VDD.t107 VDD.t106 sky130_fd_pr__pfet_01v8_hvt ad=0.135 pd=1.27 as=0.26 ps=2.52 w=1 l=0.15
X238 VDD.t105 a_3724_38568# phi1 VDD.t104 sky130_fd_pr__pfet_01v8_hvt ad=0.135 pd=1.27 as=0.135 ps=1.27 w=1 l=0.15
X239 VSS.t321 sky130_fd_sc_hd__dlymetal6s6s_1_3.A a_3864_38050# VSS.t122 sky130_fd_pr__nfet_01v8 ad=0.097 pd=0.975 as=0.109 ps=1.36 w=0.42 l=0.15
X240 VDD.t15 a_3172_36936# phi2_n VDD.t14 sky130_fd_pr__pfet_01v8_hvt ad=0.135 pd=1.27 as=0.135 ps=1.27 w=1 l=0.15
X241 vcm.t69 VSS.t160 error sky130_fd_pr__cap_var_lvt w=16.4 l=16
X242 sky130_fd_sc_hd__dlymetal6s6s_1_3.A a_3510_38050# VSS.t318 VSS.t98 sky130_fd_pr__nfet_01v8 ad=0.169 pd=1.82 as=0.097 ps=0.975 w=0.65 l=0.15
X243 VDD.t123 sky130_fd_sc_hd__dlymetal6s6s_1_4.A a_2944_37506# VDD.t122 sky130_fd_pr__pfet_01v8_hvt ad=0.141 pd=1.33 as=0.109 ps=1.36 w=0.42 l=0.15
X244 VSS.t308 sky130_fd_sc_hd__nand2_1_1.Y a_2024_37506# VSS.t293 sky130_fd_pr__nfet_01v8 ad=0.097 pd=0.975 as=0.109 ps=1.36 w=0.42 l=0.15
X245 phi2 a_3724_36936# VSS.t116 VSS.t115 sky130_fd_pr__nfet_01v8 ad=0.0878 pd=0.92 as=0.0878 ps=0.92 w=0.65 l=0.15
X246 vcm.t70 VSS.t158 error sky130_fd_pr__cap_var_lvt w=16.4 l=16
X247 vcm.t71 VSS.t156 error sky130_fd_pr__cap_var_lvt w=16.4 l=16
X248 vcm.t72 VSS.t154 error sky130_fd_pr__cap_var_lvt w=16.4 l=16
X249 a_2484_37506# a_2307_37506# VDD.t23 VDD.t22 sky130_fd_pr__pfet_01v8_hvt ad=0.26 pd=2.52 as=0.141 ps=1.33 w=1 l=0.15
X250 mimtop1.t36 mimbot1.t13 sky130_fd_pr__cap_mim_m3_1 l=17.2 w=17.2
X251 mimtop1.t37 mimbot1.t12 sky130_fd_pr__cap_mim_m3_1 l=17.2 w=17.2
X252 vcm.t73 VSS.t152 error sky130_fd_pr__cap_var_lvt w=16.4 l=16
X253 vcm.t74 VSS.t150 error sky130_fd_pr__cap_var_lvt w=16.4 l=16
X254 mimtop1.t2 phi1_n vcm.t2 VDD.t85 sky130_fd_pr__pfet_01v8 ad=0.0725 pd=0.79 as=0.145 ps=1.58 w=0.5 l=0.5
X255 a_3724_36936# sky130_fd_sc_hd__inv_1_3.A VSS.t69 VSS.t68 sky130_fd_pr__nfet_01v8 ad=0.169 pd=1.82 as=0.0878 ps=0.92 w=0.65 l=0.15
X256 VSS.t63 sky130_fd_sc_hd__inv_1_1.A sky130_fd_sc_hd__inv_1_3.A VSS.t62 sky130_fd_pr__nfet_01v8 ad=0.169 pd=1.82 as=0.169 ps=1.82 w=0.65 l=0.15
X257 vcm.t75 VSS.t148 error sky130_fd_pr__cap_var_lvt w=16.4 l=16
X258 sky130_fd_sc_hd__inv_1_0.A a_4430_38050# VDD.t69 VDD.t68 sky130_fd_pr__pfet_01v8_hvt ad=0.26 pd=2.52 as=0.141 ps=1.33 w=1 l=0.15
X259 phi1_n a_3172_38568# VDD.t129 VDD.t128 sky130_fd_pr__pfet_01v8_hvt ad=0.135 pd=1.27 as=0.135 ps=1.27 w=1 l=0.15
X260 mimtop2 VSS.t7 sky130_fd_pr__cap_mim_m3_1 l=17.2 w=17.2
X261 mimtop1.t38 mimbot1.t11 sky130_fd_pr__cap_mim_m3_1 l=17.2 w=17.2
X262 vcm.t76 VSS.t146 error sky130_fd_pr__cap_var_lvt w=16.4 l=16
X263 vcm.t77 VSS.t144 error sky130_fd_pr__cap_var_lvt w=16.4 l=16
X264 VSS.t102 sky130_fd_sc_hd__dlymetal6s6s_1_2.A a_2944_38050# VSS.t101 sky130_fd_pr__nfet_01v8 ad=0.097 pd=0.975 as=0.109 ps=1.36 w=0.42 l=0.15
X265 mimtop1.t39 mimbot1.t10 sky130_fd_pr__cap_mim_m3_1 l=17.2 w=17.2
X266 sky130_fd_sc_hd__nand2_1_0.Y clk.t2 VDD.t1 VDD.t0 sky130_fd_pr__pfet_01v8_hvt ad=0.135 pd=1.27 as=0.26 ps=2.52 w=1 l=0.15
X267 vcm.t78 VSS.t142 error sky130_fd_pr__cap_var_lvt w=16.4 l=16
X268 vcm.t79 VSS.t140 error sky130_fd_pr__cap_var_lvt w=16.4 l=16
X269 mimtop2 VSS.t6 sky130_fd_pr__cap_mim_m3_1 l=17.2 w=17.2
X270 a_2484_38050# a_2307_38050# VSS.t41 VSS.t40 sky130_fd_pr__nfet_01v8 ad=0.169 pd=1.82 as=0.097 ps=0.975 w=0.65 l=0.15
X271 sky130_fd_sc_hd__inv_1_1.A a_4430_37506# VSS.t104 VSS.t103 sky130_fd_pr__nfet_01v8 ad=0.169 pd=1.82 as=0.097 ps=0.975 w=0.65 l=0.15
X272 VDD.t127 a_3172_38568# phi1_n VDD.t126 sky130_fd_pr__pfet_01v8_hvt ad=0.135 pd=1.27 as=0.135 ps=1.27 w=1 l=0.15
X273 mimtop2 VSS.t5 sky130_fd_pr__cap_mim_m3_1 l=17.2 w=17.2
X274 mimtop1.t40 mimbot1.t9 sky130_fd_pr__cap_mim_m3_1 l=17.2 w=17.2
X275 phi2_n a_3172_36936# VSS.t54 VSS.t53 sky130_fd_pr__nfet_01v8 ad=0.0878 pd=0.92 as=0.169 ps=1.82 w=0.65 l=0.15
X276 mimtop1.t41 mimbot1.t8 sky130_fd_pr__cap_mim_m3_1 l=17.2 w=17.2
X277 vcm.t80 VSS.t138 error sky130_fd_pr__cap_var_lvt w=16.4 l=16
X278 mimtop2 phi2_n mimbot1.t44 VDD.t114 sky130_fd_pr__pfet_01v8 ad=0.0725 pd=0.79 as=0.145 ps=1.58 w=0.5 l=0.5
X279 mimtop2 VSS.t4 sky130_fd_pr__cap_mim_m3_1 l=17.2 w=17.2
X280 phi1 a_3724_38568# VSS.t297 VSS.t296 sky130_fd_pr__nfet_01v8 ad=0.0878 pd=0.92 as=0.0878 ps=0.92 w=0.65 l=0.15
X281 a_3404_38050# a_3227_38050# VDD.t41 VDD.t40 sky130_fd_pr__pfet_01v8_hvt ad=0.26 pd=2.52 as=0.141 ps=1.33 w=1 l=0.15
X282 VDD.t31 sky130_fd_sc_hd__inv_1_3.A sky130_fd_sc_hd__inv_1_3.Y VDD.t30 sky130_fd_pr__pfet_01v8_hvt ad=0.26 pd=2.52 as=0.26 ps=2.52 w=1 l=0.15
X283 vcm.t81 VSS.t136 error sky130_fd_pr__cap_var_lvt w=16.4 l=16
X284 vcm.t82 VSS.t134 error sky130_fd_pr__cap_var_lvt w=16.4 l=16
X285 mimtop2 VSS.t3 sky130_fd_pr__cap_mim_m3_1 l=17.2 w=17.2
X286 mimtop1.t42 mimbot1.t7 sky130_fd_pr__cap_mim_m3_1 l=17.2 w=17.2
X287 vcm.t83 VSS.t132 error sky130_fd_pr__cap_var_lvt w=16.4 l=16
X288 VDD.t5 a_3121_38050# a_3227_38050# VDD.t4 sky130_fd_pr__pfet_01v8_hvt ad=0.141 pd=1.33 as=0.109 ps=1.36 w=0.42 l=0.15
X289 mimtop1.t43 mimbot1.t6 sky130_fd_pr__cap_mim_m3_1 l=17.2 w=17.2
X290 mimtop1.t44 mimbot1.t5 sky130_fd_pr__cap_mim_m3_1 l=17.2 w=17.2
X291 vcm.t84 VSS.t130 error sky130_fd_pr__cap_var_lvt w=16.4 l=16
X292 a_3724_38568# sky130_fd_sc_hd__inv_1_2.A VSS.t65 VSS.t64 sky130_fd_pr__nfet_01v8 ad=0.169 pd=1.82 as=0.0878 ps=0.92 w=0.65 l=0.15
X293 VDD.t103 a_3724_38568# phi1 VDD.t102 sky130_fd_pr__pfet_01v8_hvt ad=0.135 pd=1.27 as=0.135 ps=1.27 w=1 l=0.15
X294 VSS.t89 sky130_fd_sc_hd__inv_1_0.A sky130_fd_sc_hd__inv_1_2.A VSS.t88 sky130_fd_pr__nfet_01v8 ad=0.169 pd=1.82 as=0.169 ps=1.82 w=0.65 l=0.15
X295 sky130_fd_sc_hd__inv_1_4.Y clk.t3 VDD.t9 VDD.t8 sky130_fd_pr__pfet_01v8_hvt ad=0.26 pd=2.52 as=0.26 ps=2.52 w=1 l=0.15
X296 a_4324_37506# a_4147_37506# VDD.t39 VDD.t38 sky130_fd_pr__pfet_01v8_hvt ad=0.26 pd=2.52 as=0.141 ps=1.33 w=1 l=0.15
X297 a_3172_36936# sky130_fd_sc_hd__inv_1_3.Y VDD.t111 VDD.t110 sky130_fd_pr__pfet_01v8_hvt ad=0.26 pd=2.52 as=0.135 ps=1.27 w=1 l=0.15
X298 mimtop2 VSS.t2 sky130_fd_pr__cap_mim_m3_1 l=17.2 w=17.2
X299 a_3404_37506# a_3227_37506# VSS.t48 VSS.t47 sky130_fd_pr__nfet_01v8 ad=0.169 pd=1.82 as=0.097 ps=0.975 w=0.65 l=0.15
X300 VDD.t61 a_3121_37506# a_3227_37506# VDD.t60 sky130_fd_pr__pfet_01v8_hvt ad=0.141 pd=1.33 as=0.109 ps=1.36 w=0.42 l=0.15
X301 phi2 a_3724_36936# VSS.t114 VSS.t113 sky130_fd_pr__nfet_01v8 ad=0.0878 pd=0.92 as=0.169 ps=1.82 w=0.65 l=0.15
X302 VSS.t112 a_3724_36936# phi2 VSS.t111 sky130_fd_pr__nfet_01v8 ad=0.0878 pd=0.92 as=0.0878 ps=0.92 w=0.65 l=0.15
X303 a_4041_37506# a_3864_37506# VDD.t137 VDD.t136 sky130_fd_pr__pfet_01v8_hvt ad=0.26 pd=2.52 as=0.141 ps=1.33 w=1 l=0.15
X304 mimbot1.t42 phi1_n VSS.t285 VDD.t84 sky130_fd_pr__pfet_01v8 ad=0.0725 pd=0.79 as=0.145 ps=1.58 w=0.5 l=0.5
X305 mimtop1.t45 mimbot1.t4 sky130_fd_pr__cap_mim_m3_1 l=17.2 w=17.2
X306 vcm.t85 VSS.t128 error sky130_fd_pr__cap_var_lvt w=16.4 l=16
X307 vcm.t86 VSS.t126 error sky130_fd_pr__cap_var_lvt w=16.4 l=16
X308 VDD.t79 a_3404_38050# a_3510_38050# VDD.t78 sky130_fd_pr__pfet_01v8_hvt ad=0.141 pd=1.33 as=0.109 ps=1.36 w=0.42 l=0.15
X309 mimtop1.t46 mimbot1.t3 sky130_fd_pr__cap_mim_m3_1 l=17.2 w=17.2
X310 vcm.t87 VSS.t124 error sky130_fd_pr__cap_var_lvt w=16.4 l=16
X311 a_2201_38050# a_2024_38050# VDD.t13 VDD.t12 sky130_fd_pr__pfet_01v8_hvt ad=0.26 pd=2.52 as=0.141 ps=1.33 w=1 l=0.15
X312 mimtop2 VSS.t1 sky130_fd_pr__cap_mim_m3_1 l=17.2 w=17.2
X313 VDD.t125 a_3172_38568# phi1_n VDD.t124 sky130_fd_pr__pfet_01v8_hvt ad=0.135 pd=1.27 as=0.135 ps=1.27 w=1 l=0.15
X314 mimtop2 VSS.t0 sky130_fd_pr__cap_mim_m3_1 l=17.2 w=17.2
X315 mimtop1.t47 mimbot1.t2 sky130_fd_pr__cap_mim_m3_1 l=17.2 w=17.2
R0 vcm.n752 vcm.t0 122.98
R1 vcm.n753 vcm.t1 122.98
R2 vcm.n755 vcm.t2 122.959
R3 vcm.n756 vcm.t3 122.959
R4 vcm.n755 vcm.t7 78.1964
R5 vcm.n752 vcm.t4 74.3032
R6 vcm.n754 vcm.t5 35.0208
R7 vcm.n757 vcm.t6 34.9023