** sch_path: /foss/designs/hgu_goss/hgu/xschem/hgu_top_block.sch
.subckt hgu_top_block VDD VSS
+ result[0],result[1],result[2],result[3],result[4],result[5],result[6],result[7] EXT_CLK vip vin sel_bit[0],sel_bit[1]
+ sample_delay_cap_ctrl_code[0],sample_delay_cap_ctrl_code[1],sample_delay_cap_ctrl_code[2],sample_delay_cap_ctrl_code[3],sample_delay_cap_ctrl_code[4],sample_delay_cap_ctrl_code[5],sample_delay_cap_ctrl_code[6],sample_delay_cap_ctrl_code[7],sample_delay_cap_ctrl_code[8],sample_delay_cap_ctrl_code[9],sample_delay_cap_ctrl_code[10],sample_delay_cap_ctrl_code[11],sample_delay_cap_ctrl_code[12],sample_delay_cap_ctrl_code[13],sample_delay_cap_ctrl_code[14],sample_delay_cap_ctrl_code[15]
+ async_resetb_delay_cap_ctrl_code[0],async_resetb_delay_cap_ctrl_code[1],async_resetb_delay_cap_ctrl_code[2],async_resetb_delay_cap_ctrl_code[3]
+ async_setb_delay_cap_ctrl_code[0],async_setb_delay_cap_ctrl_code[1],async_setb_delay_cap_ctrl_code[2],async_setb_delay_cap_ctrl_code[3] async_delay_offset sample_delay_offset
+ retimer_delay_code[0],retimer_delay_code[1],retimer_delay_code[2],retimer_delay_code[3] retimer_delay_offset
*.ipin VDD
*.ipin VSS
*.opin result[0],result[1],result[2],result[3],result[4],result[5],result[6],result[7]
*.ipin EXT_CLK
*.ipin vip
*.ipin vin
*.ipin sel_bit[0],sel_bit[1]
*.ipin
*+ sample_delay_cap_ctrl_code[0],sample_delay_cap_ctrl_code[1],sample_delay_cap_ctrl_code[2],sample_delay_cap_ctrl_code[3],sample_delay_cap_ctrl_code[4],sample_delay_cap_ctrl_code[5],sample_delay_cap_ctrl_code[6],sample_delay_cap_ctrl_code[7],sample_delay_cap_ctrl_code[8],sample_delay_cap_ctrl_code[9],sample_delay_cap_ctrl_code[10],sample_delay_cap_ctrl_code[11],sample_delay_cap_ctrl_code[12],sample_delay_cap_ctrl_code[13],sample_delay_cap_ctrl_code[14],sample_delay_cap_ctrl_code[15]
*.ipin
*+ async_resetb_delay_cap_ctrl_code[0],async_resetb_delay_cap_ctrl_code[1],async_resetb_delay_cap_ctrl_code[2],async_resetb_delay_cap_ctrl_code[3]
*.ipin
*+ async_setb_delay_cap_ctrl_code[0],async_setb_delay_cap_ctrl_code[1],async_setb_delay_cap_ctrl_code[2],async_setb_delay_cap_ctrl_code[3]
*.ipin async_delay_offset
*.ipin sample_delay_offset
*.ipin retimer_delay_code[0],retimer_delay_code[1],retimer_delay_code[2],retimer_delay_code[3]
*.ipin retimer_delay_offset
x1 sar_clk result[0] result[1] result[2] result[3] result[4] result[5] result[6] result[7]
+ sample_clk sel_bit[0] sel_bit[1] sample_clk_b VDD VSS EXT_CLK COMP_RESULT result_sw[1] result_sw[2]
+ result_sw[3] result_sw[4] result_sw[5] result_sw[6] result_sw[7] READY result_sw_b[1] result_sw_b[2]
+ result_sw_b[3] result_sw_b[4] result_sw_b[5] result_sw_b[6] result_sw_b[7] result2_sw[1] result2_sw[2]
+ result2_sw[3] result2_sw[4] result2_sw[5] result2_sw[6] result2_sw[7] result2_sw_b[1] result2_sw_b[2]
+ result2_sw_b[3] result2_sw_b[4] result2_sw_b[5] result2_sw_b[6] result2_sw_b[7] sample_delay_cap_ctrl_code[0]
+ sample_delay_cap_ctrl_code[1] sample_delay_cap_ctrl_code[2] sample_delay_cap_ctrl_code[3] sample_delay_cap_ctrl_code[4]
+ sample_delay_cap_ctrl_code[5] sample_delay_cap_ctrl_code[6] sample_delay_cap_ctrl_code[7] sample_delay_cap_ctrl_code[8]
+ sample_delay_cap_ctrl_code[9] sample_delay_cap_ctrl_code[10] sample_delay_cap_ctrl_code[11] sample_delay_cap_ctrl_code[12]
+ sample_delay_cap_ctrl_code[13] sample_delay_cap_ctrl_code[14] sample_delay_cap_ctrl_code[15] async_resetb_delay_cap_ctrl_code[0]
+ async_resetb_delay_cap_ctrl_code[1] async_resetb_delay_cap_ctrl_code[2] async_resetb_delay_cap_ctrl_code[3]
+ async_setb_delay_cap_ctrl_code[0] async_setb_delay_cap_ctrl_code[1] async_setb_delay_cap_ctrl_code[2]
+ async_setb_delay_cap_ctrl_code[3] async_delay_offset sample_delay_offset retimer_delay_offset retimer_delay_code[0]
+ retimer_delay_code[1] retimer_delay_code[2] retimer_delay_code[3] hgu_sarlogic
x2 READY tah_vn COMP_RESULT net11 tah_vp sar_clk VDD VSS hgu_comp
x3 sw5 swd4 sw3 result_sw[2] swd2 sw2 swd6 swd5 result_sw[1] sw4 sw6 result2_sw[2] result2_sw[1]
+ swd3 VSS VREF tah_vp tah_vp tah_vp tah_vp tah_vp tah_vp tah_vp tah_vp tah_vp tah_vp tah_vp tah_vp tah_vp
+ tah_vp VDD hgu_cdac_half
x4 net4 net8 net2 result_sw_b[2] net10 net1 net6 net7 result_sw_b[1] net3 net5 result2_sw_b[2]
+ result2_sw_b[1] net9 VSS VREF tah_vn tah_vn tah_vn tah_vn tah_vn tah_vn tah_vn tah_vn tah_vn tah_vn tah_vn tah_vn
+ tah_vn tah_vn VDD hgu_cdac_half
x21 sample_clk VDD VSS sample_clk_b tah_vp vip vin tah_vn hgu_tah_flat
x6 result2_sw[3] result2_sw[6] result2_sw[4] result2_sw[5] result2_sw[7] sw2 sw5 sw3 sw4 sw6 VDD VSS
+ hgu_cdac_sw_buffer
x7 result_sw[3] result_sw[6] result_sw[4] result_sw[5] result_sw[7] swd2 swd5 swd3 swd4 swd6 VDD VSS
+ hgu_cdac_sw_buffer
x8 result2_sw_b[3] result2_sw_b[6] result2_sw_b[4] result2_sw_b[5] result2_sw_b[7] net1 net4 net2
+ net3 net5 VDD VSS hgu_cdac_sw_buffer
x9 result_sw_b[3] result_sw_b[6] result_sw_b[4] result_sw_b[5] result_sw_b[7] net10 net7 net9 net8
+ net6 VDD VSS hgu_cdac_sw_buffer
V1 VREF GND 0.9
.save i(v1)
**.ends

* expanding   symbol:  ../xschem/hgu_sarlogic.sym # of pins=21
** sym_path: /foss/designs/hgu_goss/hgu/xschem/hgu_sarlogic.sym
** sch_path: /foss/designs/hgu_goss/hgu/xschem/hgu_sarlogic.sch
.subckt hgu_sarlogic sar_clk sar_result[0] sar_result[1] sar_result[2] sar_result[3] sar_result[4]
+ sar_result[5] sar_result[6] sar_result[7] sample_clk sel_bit[0] sel_bit[1] sample_clk_b VDD VSS EXT_CLK
+ COMP_RESULT vdd_sw[1] vdd_sw[2] vdd_sw[3] vdd_sw[4] vdd_sw[5] vdd_sw[6] vdd_sw[7] READY vdd_sw_b[1] vdd_sw_b[2]
+ vdd_sw_b[3] vdd_sw_b[4] vdd_sw_b[5] vdd_sw_b[6] vdd_sw_b[7] vss_sw[1] vss_sw[2] vss_sw[3] vss_sw[4] vss_sw[5]
+ vss_sw[6] vss_sw[7] vss_sw_b[1] vss_sw_b[2] vss_sw_b[3] vss_sw_b[4] vss_sw_b[5] vss_sw_b[6] vss_sw_b[7]
+ sample_delay_cap_ctrl_code[0] sample_delay_cap_ctrl_code[1] sample_delay_cap_ctrl_code[2] sample_delay_cap_ctrl_code[3]
+ sample_delay_cap_ctrl_code[4] sample_delay_cap_ctrl_code[5] sample_delay_cap_ctrl_code[6] sample_delay_cap_ctrl_code[7]
+ sample_delay_cap_ctrl_code[8] sample_delay_cap_ctrl_code[9] sample_delay_cap_ctrl_code[10] sample_delay_cap_ctrl_code[11]
+ sample_delay_cap_ctrl_code[12] sample_delay_cap_ctrl_code[13] sample_delay_cap_ctrl_code[14] sample_delay_cap_ctrl_code[15]
+ async_resetb_delay_cap_ctrl_code[0] async_resetb_delay_cap_ctrl_code[1] async_resetb_delay_cap_ctrl_code[2]
+ async_resetb_delay_cap_ctrl_code[3] async_setb_delay_cap_ctrl_code[0] async_setb_delay_cap_ctrl_code[1]
+ async_setb_delay_cap_ctrl_code[2] async_setb_delay_cap_ctrl_code[3] async_delay_offset sample_delay_offset retimer_eob_delay_offset
+ retimer_delay_code[0] retimer_delay_code[1] retimer_delay_code[2] retimer_delay_code[3]
*.ipin VDD
*.ipin VSS
*.ipin COMP_RESULT
*.ipin READY
*.ipin EXT_CLK
*.opin sar_clk
*.opin
*+ sar_result[0],sar_result[1],sar_result[2],sar_result[3],sar_result[4],sar_result[5],sar_result[6],sar_result[7]
*.opin sample_clk
*.ipin sel_bit[0],sel_bit[1]
*.ipin
*+ sample_delay_cap_ctrl_code[0],sample_delay_cap_ctrl_code[1],sample_delay_cap_ctrl_code[2],sample_delay_cap_ctrl_code[3],sample_delay_cap_ctrl_code[4],sample_delay_cap_ctrl_code[5],sample_delay_cap_ctrl_code[6],sample_delay_cap_ctrl_code[7],sample_delay_cap_ctrl_code[8],sample_delay_cap_ctrl_code[9],sample_delay_cap_ctrl_code[10],sample_delay_cap_ctrl_code[11],sample_delay_cap_ctrl_code[12],sample_delay_cap_ctrl_code[13],sample_delay_cap_ctrl_code[14],sample_delay_cap_ctrl_code[15]
*.opin sample_clk_b
*.opin vdd_sw[1],vdd_sw[2],vdd_sw[3],vdd_sw[4],vdd_sw[5],vdd_sw[6],vdd_sw[7]
*.opin vdd_sw_b[1],vdd_sw_b[2],vdd_sw_b[3],vdd_sw_b[4],vdd_sw_b[5],vdd_sw_b[6],vdd_sw_b[7]
*.opin vss_sw[1],vss_sw[2],vss_sw[3],vss_sw[4],vss_sw[5],vss_sw[6],vss_sw[7]
*.opin vss_sw_b[1],vss_sw_b[2],vss_sw_b[3],vss_sw_b[4],vss_sw_b[5],vss_sw_b[6],vss_sw_b[7]
*.ipin
*+ async_resetb_delay_cap_ctrl_code[0],async_resetb_delay_cap_ctrl_code[1],async_resetb_delay_cap_ctrl_code[2],async_resetb_delay_cap_ctrl_code[3]
*.ipin
*+ async_setb_delay_cap_ctrl_code[0],async_setb_delay_cap_ctrl_code[1],async_setb_delay_cap_ctrl_code[2],async_setb_delay_cap_ctrl_code[3]
*.ipin async_delay_offset
*.ipin sample_delay_offset
*.ipin retimer_delay_code[0],retimer_delay_code[1],retimer_delay_code[2],retimer_delay_code[3]
*.ipin retimer_eob_delay_offset
x1 sar_clk VDD VSS sample_clk EOB READY async_delay_offset async_resetb_delay_cap_ctrl_code[0]
+ async_resetb_delay_cap_ctrl_code[1] async_resetb_delay_cap_ctrl_code[2] async_resetb_delay_cap_ctrl_code[3]
+ async_setb_delay_cap_ctrl_code[0] async_setb_delay_cap_ctrl_code[1] async_setb_delay_cap_ctrl_code[2]
+ async_setb_delay_cap_ctrl_code[3] hgu_clk_async
x2 sample_clk_b VDD VSS EXT_CLK VSS VSS sample_clk sample_delay_cap_ctrl_code[0]
+ sample_delay_cap_ctrl_code[1] sample_delay_cap_ctrl_code[2] sample_delay_cap_ctrl_code[3] sample_delay_cap_ctrl_code[4]
+ sample_delay_cap_ctrl_code[5] sample_delay_cap_ctrl_code[6] sample_delay_cap_ctrl_code[7] sample_delay_cap_ctrl_code[8]
+ sample_delay_cap_ctrl_code[9] sample_delay_cap_ctrl_code[10] sample_delay_cap_ctrl_code[11] sample_delay_cap_ctrl_code[12]
+ sample_delay_cap_ctrl_code[13] sample_delay_cap_ctrl_code[14] sample_delay_cap_ctrl_code[15] sample_delay_offset hgu_clk_sample
x3 sel_bit[0] sel_bit[1] EOB sar_clk sar_result_temp[0] sar_result_temp[1] sar_result_temp[2]
+ sar_result_temp[3] sar_result_temp[4] sar_result_temp[5] sar_result_temp[6] sar_result_temp[7] COMP_RESULT check[0]
+ check[1] check[2] check[3] check[4] check[5] check[6] sample_clk_b VDD VSS hgu_sarlogic_8bit_logic
x4 VDD VSS vdd_sw[1] vdd_sw[2] vdd_sw[3] vdd_sw[4] vdd_sw[5] vdd_sw[6] vdd_sw[7] vdd_sw_b[1]
+ vdd_sw_b[2] vdd_sw_b[3] vdd_sw_b[4] vdd_sw_b[5] vdd_sw_b[6] vdd_sw_b[7] sar_result_temp[1] sar_result_temp[2]
+ sar_result_temp[3] sar_result_temp[4] sar_result_temp[5] sar_result_temp[6] sar_result_temp[7] vss_sw[1] vss_sw[2]
+ vss_sw[3] vss_sw[4] vss_sw[5] vss_sw[6] vss_sw[7] check[0] check[1] check[2] check[3] check[4] check[5]
+ check[6] vss_sw_b[1] vss_sw_b[2] vss_sw_b[3] vss_sw_b[4] vss_sw_b[5] vss_sw_b[6] vss_sw_b[7] sar_clk
+ sample_clk_b hgu_sarlogic_sw_ctrl
x5 VDD VSS sar_result_temp[0] sar_result_temp[1] sar_result_temp[2] sar_result_temp[3]
+ sar_result_temp[4] sar_result_temp[5] sar_result_temp[6] sar_result_temp[7] EOB retimer_delay_code[0]
+ retimer_delay_code[1] retimer_delay_code[2] retimer_delay_code[3] retimer_eob_delay_offset sar_result[0] sar_result[1]
+ sar_result[2] sar_result[3] sar_result[4] sar_result[5] sar_result[6] sar_result[7] hgu_sarlogic_retimer
.ends


* expanding   symbol:  ../xschem/hgu_comp.sym # of pins=8
** sym_path: /foss/designs/hgu_goss/hgu/xschem/hgu_comp.sym
** sch_path: /foss/designs/hgu_goss/hgu/xschem/hgu_comp.sch
.subckt hgu_comp ready cdac_vn comp_outp comp_outn cdac_vp clk VDD VSS
*.ipin cdac_vn
*.ipin cdac_vp
*.ipin VSS
*.ipin VDD
*.ipin clk
*.opin ready
*.opin comp_outp
*.opin comp_outn
XM1 net1 clk VSS VSS sky130_fd_pr__nfet_01v8 L=0.15 W=4 nf=4 ad='int((nf+1)/2) * W/nf * 0.29' as='int((nf+2)/2) * W/nf * 0.29'
+ pd='2*int((nf+1)/2) * (W/nf + 0.29)' ps='2*int((nf+2)/2) * (W/nf + 0.29)' nrd='0.29 / W' nrs='0.29 / W'
+ sa=0 sb=0 sd=0 mult=1 m=1
XM4 Y X Q VSS sky130_fd_pr__nfet_01v8 L=0.15 W=1 nf=1 ad='int((nf+1)/2) * W/nf * 0.29' as='int((nf+2)/2) * W/nf * 0.29'
+ pd='2*int((nf+1)/2) * (W/nf + 0.29)' ps='2*int((nf+2)/2) * (W/nf + 0.29)' nrd='0.29 / W' nrs='0.29 / W'
+ sa=0 sb=0 sd=0 mult=1 m=1
XM5 X Y P VSS sky130_fd_pr__nfet_01v8 L=0.15 W=1 nf=1 ad='int((nf+1)/2) * W/nf * 0.29' as='int((nf+2)/2) * W/nf * 0.29'
+ pd='2*int((nf+1)/2) * (W/nf + 0.29)' ps='2*int((nf+2)/2) * (W/nf + 0.29)' nrd='0.29 / W' nrs='0.29 / W'
+ sa=0 sb=0 sd=0 mult=1 m=1
XM6 X Y VDD VDD sky130_fd_pr__pfet_01v8 L=0.15 W=1 nf=1 ad='int((nf+1)/2) * W/nf * 0.29' as='int((nf+2)/2) * W/nf * 0.29'
+ pd='2*int((nf+1)/2) * (W/nf + 0.29)' ps='2*int((nf+2)/2) * (W/nf + 0.29)' nrd='0.29 / W' nrs='0.29 / W'
+ sa=0 sb=0 sd=0 mult=1 m=1
XM7 Y X VDD VDD sky130_fd_pr__pfet_01v8 L=0.15 W=1 nf=1 ad='int((nf+1)/2) * W/nf * 0.29' as='int((nf+2)/2) * W/nf * 0.29'
+ pd='2*int((nf+1)/2) * (W/nf + 0.29)' ps='2*int((nf+2)/2) * (W/nf + 0.29)' nrd='0.29 / W' nrs='0.29 / W'
+ sa=0 sb=0 sd=0 mult=1 m=1
XM8 X clk VDD VDD sky130_fd_pr__pfet_01v8 L=0.15 W=1 nf=1 ad='int((nf+1)/2) * W/nf * 0.29' as='int((nf+2)/2) * W/nf * 0.29'
+ pd='2*int((nf+1)/2) * (W/nf + 0.29)' ps='2*int((nf+2)/2) * (W/nf + 0.29)' nrd='0.29 / W' nrs='0.29 / W'
+ sa=0 sb=0 sd=0 mult=1 m=1
XM9 P clk VDD VDD sky130_fd_pr__pfet_01v8 L=0.15 W=1 nf=1 ad='int((nf+1)/2) * W/nf * 0.29' as='int((nf+2)/2) * W/nf * 0.29'
+ pd='2*int((nf+1)/2) * (W/nf + 0.29)' ps='2*int((nf+2)/2) * (W/nf + 0.29)' nrd='0.29 / W' nrs='0.29 / W'
+ sa=0 sb=0 sd=0 mult=1 m=1
XM10 Y clk VDD VDD sky130_fd_pr__pfet_01v8 L=0.15 W=1 nf=1 ad='int((nf+1)/2) * W/nf * 0.29' as='int((nf+2)/2) * W/nf * 0.29'
+ pd='2*int((nf+1)/2) * (W/nf + 0.29)' ps='2*int((nf+2)/2) * (W/nf + 0.29)' nrd='0.29 / W' nrs='0.29 / W'
+ sa=0 sb=0 sd=0 mult=1 m=1
XM11 Q clk VDD VDD sky130_fd_pr__pfet_01v8 L=0.15 W=1 nf=1 ad='int((nf+1)/2) * W/nf * 0.29' as='int((nf+2)/2) * W/nf * 0.29'
+ pd='2*int((nf+1)/2) * (W/nf + 0.29)' ps='2*int((nf+2)/2) * (W/nf + 0.29)' nrd='0.29 / W' nrs='0.29 / W'
+ sa=0 sb=0 sd=0 mult=1 m=1
XM16 RS_n RS_p VDD VDD sky130_fd_pr__pfet_01v8 L=0.15 W=0.84 nf=1 ad='int((nf+1)/2) * W/nf * 0.29' as='int((nf+2)/2) * W/nf * 0.29'
+ pd='2*int((nf+1)/2) * (W/nf + 0.29)' ps='2*int((nf+2)/2) * (W/nf + 0.29)' nrd='0.29 / W' nrs='0.29 / W'
+ sa=0 sb=0 sd=0 mult=1 m=1
XM17 RS_p RS_n VDD VDD sky130_fd_pr__pfet_01v8 L=0.15 W=0.84 nf=1 ad='int((nf+1)/2) * W/nf * 0.29' as='int((nf+2)/2) * W/nf * 0.29'
+ pd='2*int((nf+1)/2) * (W/nf + 0.29)' ps='2*int((nf+2)/2) * (W/nf + 0.29)' nrd='0.29 / W' nrs='0.29 / W'
+ sa=0 sb=0 sd=0 mult=1 m=1
XM19 RS_p Y_inv VSS VSS sky130_fd_pr__nfet_01v8 L=0.15 W=0.84 nf=1 ad='int((nf+1)/2) * W/nf * 0.29' as='int((nf+2)/2) * W/nf * 0.29'
+ pd='2*int((nf+1)/2) * (W/nf + 0.29)' ps='2*int((nf+2)/2) * (W/nf + 0.29)' nrd='0.29 / W' nrs='0.29 / W'
+ sa=0 sb=0 sd=0 mult=1 m=1
XM23 RS_n X_inv VSS VSS sky130_fd_pr__nfet_01v8 L=0.15 W=0.84 nf=1 ad='int((nf+1)/2) * W/nf * 0.29' as='int((nf+2)/2) * W/nf * 0.29'
+ pd='2*int((nf+1)/2) * (W/nf + 0.29)' ps='2*int((nf+2)/2) * (W/nf + 0.29)' nrd='0.29 / W' nrs='0.29 / W'
+ sa=0 sb=0 sd=0 mult=1 m=1
XM2 P cdac_vp net1 VSS sky130_fd_pr__nfet_01v8 L=0.15 W=8 nf=8 ad='int((nf+1)/2) * W / nf * 0.29' as='int((nf+2)/2) * W / nf * 0.29'
+ pd='2*int((nf+1)/2) * (W / nf + 0.29)' ps='2*int((nf+2)/2) * (W / nf + 0.29)' nrd='0.29 / W ' nrs='0.29 / W '
+ sa=0 sb=0 sd=0 mult=1 m=1
XM3 Q cdac_vn net1 VSS sky130_fd_pr__nfet_01v8 L=0.15 W=8 nf=8 ad='int((nf+1)/2) * W / nf * 0.29' as='int((nf+2)/2) * W / nf * 0.29'
+ pd='2*int((nf+1)/2) * (W / nf + 0.29)' ps='2*int((nf+2)/2) * (W / nf + 0.29)' nrd='0.29 / W ' nrs='0.29 / W '
+ sa=0 sb=0 sd=0 mult=1 m=1
XM12 X_inv X VDD VDD sky130_fd_pr__pfet_01v8 L=0.15 W=0.84 nf=1 ad='int((nf+1)/2) * W/nf * 0.29' as='int((nf+2)/2) * W/nf * 0.29'
+ pd='2*int((nf+1)/2) * (W/nf + 0.29)' ps='2*int((nf+2)/2) * (W/nf + 0.29)' nrd='0.29 / W' nrs='0.29 / W'
+ sa=0 sb=0 sd=0 mult=1 m=1
XM13 X_inv X VSS VSS sky130_fd_pr__nfet_01v8 L=0.15 W=0.42 nf=1 ad='int((nf+1)/2) * W/nf * 0.29' as='int((nf+2)/2) * W/nf * 0.29'
+ pd='2*int((nf+1)/2) * (W/nf + 0.29)' ps='2*int((nf+2)/2) * (W/nf + 0.29)' nrd='0.29 / W' nrs='0.29 / W'
+ sa=0 sb=0 sd=0 mult=1 m=1
XM14 X_drive X_inv VDD VDD sky130_fd_pr__pfet_01v8 L=0.15 W=2.52 nf=3 ad='int((nf+1)/2) * W/nf * 0.29'
+ as='int((nf+2)/2) * W/nf * 0.29' pd='2*int((nf+1)/2) * (W/nf + 0.29)' ps='2*int((nf+2)/2) * (W/nf + 0.29)'
+ nrd='0.29 / W' nrs='0.29 / W' sa=0 sb=0 sd=0 mult=1 m=1
XM15 X_drive X_inv VSS VSS sky130_fd_pr__nfet_01v8 L=0.15 W=1.38 nf=3 ad='int((nf+1)/2) * W/nf * 0.29'
+ as='int((nf+2)/2) * W/nf * 0.29' pd='2*int((nf+1)/2) * (W/nf + 0.29)' ps='2*int((nf+2)/2) * (W/nf + 0.29)'
+ nrd='0.29 / W' nrs='0.29 / W' sa=0 sb=0 sd=0 mult=1 m=1
XM18 Y_inv Y VDD VDD sky130_fd_pr__pfet_01v8 L=0.15 W=0.84 nf=1 ad='int((nf+1)/2) * W/nf * 0.29' as='int((nf+2)/2) * W/nf * 0.29'
+ pd='2*int((nf+1)/2) * (W/nf + 0.29)' ps='2*int((nf+2)/2) * (W/nf + 0.29)' nrd='0.29 / W' nrs='0.29 / W'
+ sa=0 sb=0 sd=0 mult=1 m=1
XM20 Y_inv Y VSS VSS sky130_fd_pr__nfet_01v8 L=0.15 W=0.42 nf=1 ad='int((nf+1)/2) * W/nf * 0.29' as='int((nf+2)/2) * W/nf * 0.29'
+ pd='2*int((nf+1)/2) * (W/nf + 0.29)' ps='2*int((nf+2)/2) * (W/nf + 0.29)' nrd='0.29 / W' nrs='0.29 / W'
+ sa=0 sb=0 sd=0 mult=1 m=1
XM21 Y_drive Y_inv VDD VDD sky130_fd_pr__pfet_01v8 L=0.15 W=2.52 nf=3 ad='int((nf+1)/2) * W/nf * 0.29'
+ as='int((nf+2)/2) * W/nf * 0.29' pd='2*int((nf+1)/2) * (W/nf + 0.29)' ps='2*int((nf+2)/2) * (W/nf + 0.29)'
+ nrd='0.29 / W' nrs='0.29 / W' sa=0 sb=0 sd=0 mult=1 m=1
XM22 Y_drive Y_inv VSS VSS sky130_fd_pr__nfet_01v8 L=0.15 W=1.38 nf=3 ad='int((nf+1)/2) * W/nf * 0.29'
+ as='int((nf+2)/2) * W/nf * 0.29' pd='2*int((nf+1)/2) * (W/nf + 0.29)' ps='2*int((nf+2)/2) * (W/nf + 0.29)'
+ nrd='0.29 / W' nrs='0.29 / W' sa=0 sb=0 sd=0 mult=1 m=1
XM24 net2 Y_drive X_drive VDD sky130_fd_pr__pfet_01v8 L=0.15 W=0.84 nf=1 ad='int((nf+1)/2) * W/nf * 0.29'
+ as='int((nf+2)/2) * W/nf * 0.29' pd='2*int((nf+1)/2) * (W/nf + 0.29)' ps='2*int((nf+2)/2) * (W/nf + 0.29)'
+ nrd='0.29 / W' nrs='0.29 / W' sa=0 sb=0 sd=0 mult=1 m=1
XM25 net2 X_drive Y_drive VDD sky130_fd_pr__pfet_01v8 L=0.15 W=0.84 nf=1 ad='int((nf+1)/2) * W/nf * 0.29'
+ as='int((nf+2)/2) * W/nf * 0.29' pd='2*int((nf+1)/2) * (W/nf + 0.29)' ps='2*int((nf+2)/2) * (W/nf + 0.29)'
+ nrd='0.29 / W' nrs='0.29 / W' sa=0 sb=0 sd=0 mult=1 m=1
XM26 net2 Y_drive net3 VSS sky130_fd_pr__nfet_01v8 L=0.15 W=0.84 nf=1 ad='int((nf+1)/2) * W/nf * 0.29'
+ as='int((nf+2)/2) * W/nf * 0.29' pd='2*int((nf+1)/2) * (W/nf + 0.29)' ps='2*int((nf+2)/2) * (W/nf + 0.29)'
+ nrd='0.29 / W' nrs='0.29 / W' sa=0 sb=0 sd=0 mult=1 m=1
XM27 net3 X_drive VSS VSS sky130_fd_pr__nfet_01v8 L=0.15 W=0.84 nf=1 ad='int((nf+1)/2) * W/nf * 0.29'
+ as='int((nf+2)/2) * W/nf * 0.29' pd='2*int((nf+1)/2) * (W/nf + 0.29)' ps='2*int((nf+2)/2) * (W/nf + 0.29)'
+ nrd='0.29 / W' nrs='0.29 / W' sa=0 sb=0 sd=0 mult=1 m=1
XM28 ready net2 VDD VDD sky130_fd_pr__pfet_01v8 L=0.15 W=0.84 nf=1 ad='int((nf+1)/2) * W/nf * 0.29' as='int((nf+2)/2) * W/nf * 0.29'
+ pd='2*int((nf+1)/2) * (W/nf + 0.29)' ps='2*int((nf+2)/2) * (W/nf + 0.29)' nrd='0.29 / W' nrs='0.29 / W'
+ sa=0 sb=0 sd=0 mult=1 m=1
XM29 ready net2 VSS VSS sky130_fd_pr__nfet_01v8 L=0.15 W=0.42 nf=1 ad='int((nf+1)/2) * W/nf * 0.29' as='int((nf+2)/2) * W/nf * 0.29'
+ pd='2*int((nf+1)/2) * (W/nf + 0.29)' ps='2*int((nf+2)/2) * (W/nf + 0.29)' nrd='0.29 / W' nrs='0.29 / W'
+ sa=0 sb=0 sd=0 mult=1 m=1
XM30 net4 RS_p VDD VDD sky130_fd_pr__pfet_01v8 L=0.15 W=0.84 nf=1 ad='int((nf+1)/2) * W/nf * 0.29' as='int((nf+2)/2) * W/nf * 0.29'
+ pd='2*int((nf+1)/2) * (W/nf + 0.29)' ps='2*int((nf+2)/2) * (W/nf + 0.29)' nrd='0.29 / W' nrs='0.29 / W'
+ sa=0 sb=0 sd=0 mult=1 m=1
XM31 net4 RS_p VSS VSS sky130_fd_pr__nfet_01v8 L=0.15 W=0.42 nf=1 ad='int((nf+1)/2) * W/nf * 0.29' as='int((nf+2)/2) * W/nf * 0.29'
+ pd='2*int((nf+1)/2) * (W/nf + 0.29)' ps='2*int((nf+2)/2) * (W/nf + 0.29)' nrd='0.29 / W' nrs='0.29 / W'
+ sa=0 sb=0 sd=0 mult=1 m=1
XM32 comp_outp net4 VDD VDD sky130_fd_pr__pfet_01v8 L=0.15 W=2.52 nf=3 ad='int((nf+1)/2) * W/nf * 0.29'
+ as='int((nf+2)/2) * W/nf * 0.29' pd='2*int((nf+1)/2) * (W/nf + 0.29)' ps='2*int((nf+2)/2) * (W/nf + 0.29)'
+ nrd='0.29 / W' nrs='0.29 / W' sa=0 sb=0 sd=0 mult=1 m=1
XM33 comp_outp net4 VSS VSS sky130_fd_pr__nfet_01v8 L=0.15 W=1.38 nf=3 ad='int((nf+1)/2) * W/nf * 0.29'
+ as='int((nf+2)/2) * W/nf * 0.29' pd='2*int((nf+1)/2) * (W/nf + 0.29)' ps='2*int((nf+2)/2) * (W/nf + 0.29)'
+ nrd='0.29 / W' nrs='0.29 / W' sa=0 sb=0 sd=0 mult=1 m=1
XM34 net5 RS_n VDD VDD sky130_fd_pr__pfet_01v8 L=0.15 W=0.84 nf=1 ad='int((nf+1)/2) * W/nf * 0.29' as='int((nf+2)/2) * W/nf * 0.29'
+ pd='2*int((nf+1)/2) * (W/nf + 0.29)' ps='2*int((nf+2)/2) * (W/nf + 0.29)' nrd='0.29 / W' nrs='0.29 / W'
+ sa=0 sb=0 sd=0 mult=1 m=1
XM35 net5 RS_n VSS VSS sky130_fd_pr__nfet_01v8 L=0.15 W=0.42 nf=1 ad='int((nf+1)/2) * W/nf * 0.29' as='int((nf+2)/2) * W/nf * 0.29'
+ pd='2*int((nf+1)/2) * (W/nf + 0.29)' ps='2*int((nf+2)/2) * (W/nf + 0.29)' nrd='0.29 / W' nrs='0.29 / W'
+ sa=0 sb=0 sd=0 mult=1 m=1
XM36 comp_outn net5 VDD VDD sky130_fd_pr__pfet_01v8 L=0.15 W=2.52 nf=3 ad='int((nf+1)/2) * W/nf * 0.29'
+ as='int((nf+2)/2) * W/nf * 0.29' pd='2*int((nf+1)/2) * (W/nf + 0.29)' ps='2*int((nf+2)/2) * (W/nf + 0.29)'
+ nrd='0.29 / W' nrs='0.29 / W' sa=0 sb=0 sd=0 mult=1 m=1
XM37 comp_outn net5 VSS VSS sky130_fd_pr__nfet_01v8 L=0.15 W=1.38 nf=3 ad='int((nf+1)/2) * W/nf * 0.29'
+ as='int((nf+2)/2) * W/nf * 0.29' pd='2*int((nf+1)/2) * (W/nf + 0.29)' ps='2*int((nf+2)/2) * (W/nf + 0.29)'
+ nrd='0.29 / W' nrs='0.29 / W' sa=0 sb=0 sd=0 mult=1 m=1
.ends


* expanding   symbol:  ../xschem/hgu_cdac_half.sym # of pins=31
** sym_path: /foss/designs/hgu_goss/hgu/xschem/hgu_cdac_half.sym
** sch_path: /foss/designs/hgu_goss/hgu/xschem/hgu_cdac_half.sch
.subckt hgu_cdac_half d<5> db<4> d<3> db<1> db<2> d<2> db<6> db<5> db<0> d<4> d<6> d<1> d<0> db<3>
+ VSS VREF tb<0> tb<1> tb<2> tb<4> tb<5> tb<6> t<0> tb<3> t<1> t<2> t<3> t<4> t<5> t<6> VDD
*.iopin d<6>
*.iopin d<5>
*.iopin d<4>
*.iopin d<3>
*.iopin d<2>
*.iopin d<1>
*.iopin d<0>
*.iopin db<6>
*.iopin db<5>
*.iopin db<4>
*.iopin db<3>
*.iopin db<2>
*.iopin db<1>
*.iopin db<0>
*.ipin VSS
*.ipin VREF
*.iopin t<6>
*.iopin t<5>
*.iopin t<4>
*.iopin t<3>
*.iopin t<2>
*.iopin t<1>
*.iopin t<0>
*.iopin tb<6>
*.iopin tb<5>
*.iopin tb<4>
*.iopin tb<3>
*.iopin tb<2>
*.iopin tb<1>
*.iopin tb<0>
*.ipin VDD
x1 sw5 sw1 sw0 sw2 sw6 sw4 sw3 t<6> t<5> t<4> t<3> t<2> t<1> t<0> VSS t<0> hgu_cdac_8bit_array
x2 VREF d<4> d<1> d<2> d<3> d<5> d<6> d<0> sw2 sw3 sw4 sw5 sw0 sw1 sw6 VSS VDD hgu_cdac_drv
x3 swd5 swd1 swd0 swd2 swd6 swd4 swd3 tb<6> tb<5> tb<4> tb<3> tb<2> tb<1> tb<0> VSS tb<0>
+ hgu_cdac_8bit_array
x4 VREF db<4> db<1> db<2> db<3> db<5> db<6> db<0> swd2 swd3 swd4 swd5 swd0 swd1 swd6 VSS VDD
+ hgu_cdac_drv
.ends


* expanding   symbol:  ../xschem/hgu_cdac_sw_buffer.sym # of pins=12
** sym_path: /foss/designs/hgu_goss/hgu/xschem/hgu_cdac_sw_buffer.sym
** sch_path: /foss/designs/hgu_goss/hgu/xschem/hgu_cdac_sw_buffer.sch
.subckt hgu_cdac_sw_buffer sar_val<3> sar_val<6> sar_val<4> sar_val<5> sar_val<7> sw<2> sw<5> sw<3>
+ sw<4> sw<6> VDD VSS
*.ipin sar_val<7>
*.opin sw<6>
*.opin sw<5>
*.opin sw<4>
*.opin sw<3>
*.opin sw<2>
*.ipin sar_val<6>
*.ipin sar_val<5>
*.ipin sar_val<4>
*.ipin sar_val<3>
*.ipin VDD
*.ipin VSS
x9 sar_val<7> VSS VSS VDD VDD net1 sky130_fd_sc_hd__buf_1
x10 net1 VSS VSS VDD VDD net2 sky130_fd_sc_hd__buf_4
x11 net2 VSS VSS VDD VDD sw<6> sky130_fd_sc_hd__buf_16
x1 net3 VSS VSS VDD VDD sw<5> sky130_fd_sc_hd__buf_4
x2 net4 VSS VSS VDD VDD sw<4> sky130_fd_sc_hd__buf_4
x3 sar_val<6> VSS VSS VDD VDD net3 sky130_fd_sc_hd__buf_1
x4 sar_val<5> VSS VSS VDD VDD net4 sky130_fd_sc_hd__buf_1
x5 sar_val<4> VSS VSS VDD VDD sw<3> sky130_fd_sc_hd__buf_1
x6 sar_val<3> VSS VSS VDD VDD sw<2> sky130_fd_sc_hd__buf_1
x7 VSS VSS VSS VDD VDD net5 sky130_fd_sc_hd__buf_1
x8 VSS VSS VSS VDD VDD net6 sky130_fd_sc_hd__buf_1
x12 VSS VSS VSS VDD VDD net7 sky130_fd_sc_hd__buf_1
.ends


* expanding   symbol:  ../xschem/hgu_clk_async.sym # of pins=9
** sym_path: /foss/designs/hgu_goss/hgu/xschem/hgu_clk_async.sym
** sch_path: /foss/designs/hgu_goss/hgu/xschem/hgu_clk_async.sch
.subckt hgu_clk_async ASYNC_CLK_SAR VDD VSS sample_clk EOB READY delay_offset
+ async_resetb_delay_ctrl_code[0] async_resetb_delay_ctrl_code[1] async_resetb_delay_ctrl_code[2] async_resetb_delay_ctrl_code[3]
+ async_setb_delay_ctrl_code[0] async_setb_delay_ctrl_code[1] async_setb_delay_ctrl_code[2] async_setb_delay_ctrl_code[3]
*.ipin VDD
*.opin ASYNC_CLK_SAR
*.ipin VSS
*.ipin sample_clk
*.ipin EOB
*.ipin READY
*.ipin
*+ async_resetb_delay_ctrl_code[0],async_resetb_delay_ctrl_code[1],async_resetb_delay_ctrl_code[2],async_resetb_delay_ctrl_code[3]
*.ipin
*+ async_setb_delay_ctrl_code[0],async_setb_delay_ctrl_code[1],async_setb_delay_ctrl_code[2],async_setb_delay_ctrl_code[3]
*.ipin delay_offset
x3 net1 VSS sample_clk VSS VSS vDD VDD net4 sky130_fd_sc_hd__mux2_1
x8 net4 VSS EOB VSS VSS vDD VDD ASYNC_CLK_SAR sky130_fd_sc_hd__mux2_1
x27 sample_clk VDD net5 net6 VSS VSS vDD VDD net1 net7 sky130_fd_sc_hd__dfbbp_1
x9 net2 VSS VSS vDD VDD net6 sky130_fd_sc_hd__inv_1
x10 net3 VSS VSS vDD VDD net5 sky130_fd_sc_hd__inv_1
x2 VDD READY net2 VSS async_setb_delay_ctrl_code[0] async_setb_delay_ctrl_code[1]
+ async_setb_delay_ctrl_code[2] async_setb_delay_ctrl_code[3] delay_offset hgu_delay_no_code
x4 VDD ASYNC_CLK_SAR net3 VSS async_resetb_delay_ctrl_code[0] async_resetb_delay_ctrl_code[1]
+ async_resetb_delay_ctrl_code[2] async_resetb_delay_ctrl_code[3] delay_offset hgu_delay_no_code
C3 net3 VSS 5f m=1
C1 net2 VSS 5f m=1
C2 net4 VSS 5f m=1
C4 net1 VSS 5f m=1
.ends


* expanding   symbol:  ../xschem/hgu_clk_sample.sym # of pins=12
** sym_path: /foss/designs/hgu_goss/hgu/xschem/hgu_clk_sample.sym
** sch_path: /foss/designs/hgu_goss/hgu/xschem/hgu_clk_sample.sch
.subckt hgu_clk_sample SAMPLE_CLK_b VDD VSS CLK RESET SET SAMPLE_CLK CAP_CTRL_CODE0[0]
+ CAP_CTRL_CODE0[1] CAP_CTRL_CODE0[2] CAP_CTRL_CODE0[3] CAP_CTRL_CODE1[0] CAP_CTRL_CODE1[1] CAP_CTRL_CODE1[2]
+ CAP_CTRL_CODE1[3] CAP_CTRL_CODE2[0] CAP_CTRL_CODE2[1] CAP_CTRL_CODE2[2] CAP_CTRL_CODE2[3] CAP_CTRL_CODE3[0]
+ CAP_CTRL_CODE3[1] CAP_CTRL_CODE3[2] CAP_CTRL_CODE3[3] sample_delay_offset
*.ipin VDD
*.ipin VSS
*.ipin SET
*.ipin RESET
*.ipin CLK
*.opin SAMPLE_CLK
*.opin SAMPLE_CLK_b
*.ipin CAP_CTRL_CODE1[0],CAP_CTRL_CODE1[1],CAP_CTRL_CODE1[2],CAP_CTRL_CODE1[3]
*.ipin CAP_CTRL_CODE2[0],CAP_CTRL_CODE2[1],CAP_CTRL_CODE2[2],CAP_CTRL_CODE2[3]
*.ipin CAP_CTRL_CODE3[0],CAP_CTRL_CODE3[1],CAP_CTRL_CODE3[2],CAP_CTRL_CODE3[3]
*.ipin CAP_CTRL_CODE0[0],CAP_CTRL_CODE0[1],CAP_CTRL_CODE0[2],CAP_CTRL_CODE0[3]
*.ipin sample_delay_offset
x1 VDD VSS CLK net2 RESET SET hgu_clk_div
x2 net8 net2 VDD VSS CAP_CTRL_CODE0[0] CAP_CTRL_CODE0[1] CAP_CTRL_CODE0[2] CAP_CTRL_CODE0[3]
+ CAP_CTRL_CODE1[0] CAP_CTRL_CODE1[1] CAP_CTRL_CODE1[2] CAP_CTRL_CODE1[3] CAP_CTRL_CODE2[0] CAP_CTRL_CODE2[1]
+ CAP_CTRL_CODE2[2] CAP_CTRL_CODE2[3] CAP_CTRL_CODE3[0] CAP_CTRL_CODE3[1] CAP_CTRL_CODE3[2] CAP_CTRL_CODE3[3]
+ sample_delay_offset hgu_delay
x7 net8 VSS VSS vDD VDD net1 sky130_fd_sc_hd__inv_1
C1 net1 VSS 5f m=1
C2 net2 VSS 5f m=1
C3 net8 VSS 5f m=1
x3 net2 net1 VSS VSS vDD VDD net4 sky130_fd_sc_hd__nand2_1
XM7 net7 net3 VSS VSS sky130_fd_pr__nfet_01v8 L=0.15 W=0.42 nf=1 ad='int((nf+1)/2) * W/nf * 0.29' as='int((nf+2)/2) * W/nf * 0.29'
+ pd='2*int((nf+1)/2) * (W/nf + 0.29)' ps='2*int((nf+2)/2) * (W/nf + 0.29)' nrd='0.29 / W' nrs='0.29 / W'
+ sa=0 sb=0 sd=0 mult=1 m=1
XM8 net7 net3 VDD VDD sky130_fd_pr__pfet_01v8 L=0.15 W=1.26 nf=1 ad='int((nf+1)/2) * W/nf * 0.29' as='int((nf+2)/2) * W/nf * 0.29'
+ pd='2*int((nf+1)/2) * (W/nf + 0.29)' ps='2*int((nf+2)/2) * (W/nf + 0.29)' nrd='0.29 / W' nrs='0.29 / W'
+ sa=0 sb=0 sd=0 mult=1 m=1
XM9 net5 net4 VSS VSS sky130_fd_pr__nfet_01v8 L=0.15 W=0.42 nf=1 ad='int((nf+1)/2) * W/nf * 0.29' as='int((nf+2)/2) * W/nf * 0.29'
+ pd='2*int((nf+1)/2) * (W/nf + 0.29)' ps='2*int((nf+2)/2) * (W/nf + 0.29)' nrd='0.29 / W' nrs='0.29 / W'
+ sa=0 sb=0 sd=0 mult=1 m=1
XM10 net5 net4 VDD VDD sky130_fd_pr__pfet_01v8 L=0.15 W=1.4 nf=1 ad='int((nf+1)/2) * W/nf * 0.29' as='int((nf+2)/2) * W/nf * 0.29'
+ pd='2*int((nf+1)/2) * (W/nf + 0.29)' ps='2*int((nf+2)/2) * (W/nf + 0.29)' nrd='0.29 / W' nrs='0.29 / W'
+ sa=0 sb=0 sd=0 mult=1 m=1
XM11 net6 net5 VSS VSS sky130_fd_pr__nfet_01v8 L=0.15 W=0.42 nf=1 ad='int((nf+1)/2) * W/nf * 0.29' as='int((nf+2)/2) * W/nf * 0.29'
+ pd='2*int((nf+1)/2) * (W/nf + 0.29)' ps='2*int((nf+2)/2) * (W/nf + 0.29)' nrd='0.29 / W' nrs='0.29 / W'
+ sa=0 sb=0 sd=0 mult=1 m=1
XM12 net6 net5 VDD VDD sky130_fd_pr__pfet_01v8 L=0.15 W=1.26 nf=1 ad='int((nf+1)/2) * W/nf * 0.29' as='int((nf+2)/2) * W/nf * 0.29'
+ pd='2*int((nf+1)/2) * (W/nf + 0.29)' ps='2*int((nf+2)/2) * (W/nf + 0.29)' nrd='0.29 / W' nrs='0.29 / W'
+ sa=0 sb=0 sd=0 mult=1 m=1
XM13 net4 VSS net3 VDD sky130_fd_pr__pfet_01v8 L=0.15 W=1.9 nf=1 ad='int((nf+1)/2) * W/nf * 0.29' as='int((nf+2)/2) * W/nf * 0.29'
+ pd='2*int((nf+1)/2) * (W/nf + 0.29)' ps='2*int((nf+2)/2) * (W/nf + 0.29)' nrd='0.29 / W' nrs='0.29 / W'
+ sa=0 sb=0 sd=0 mult=1 m=1
XM14 net4 VDD net3 VSS sky130_fd_pr__nfet_01v8 L=0.15 W=0.42 nf=1 ad='int((nf+1)/2) * W/nf * 0.29' as='int((nf+2)/2) * W/nf * 0.29'
+ pd='2*int((nf+1)/2) * (W/nf + 0.29)' ps='2*int((nf+2)/2) * (W/nf + 0.29)' nrd='0.29 / W' nrs='0.29 / W'
+ sa=0 sb=0 sd=0 mult=1 m=1
XM18 SAMPLE_CLK_b net7 VSS VSS sky130_fd_pr__nfet_01v8 L=0.15 W=1.26 nf=3 ad='int((nf+1)/2) * W/nf * 0.29'
+ as='int((nf+2)/2) * W/nf * 0.29' pd='2*int((nf+1)/2) * (W/nf + 0.29)' ps='2*int((nf+2)/2) * (W/nf + 0.29)'
+ nrd='0.29 / W' nrs='0.29 / W' sa=0 sb=0 sd=0 mult=1 m=1
XM17 SAMPLE_CLK_b net7 VDD VDD sky130_fd_pr__pfet_01v8 L=0.15 W=3.78 nf=3 ad='int((nf+1)/2) * W/nf * 0.29'
+ as='int((nf+2)/2) * W/nf * 0.29' pd='2*int((nf+1)/2) * (W/nf + 0.29)' ps='2*int((nf+2)/2) * (W/nf + 0.29)'
+ nrd='0.29 / W' nrs='0.29 / W' sa=0 sb=0 sd=0 mult=1 m=1
XM15 SAMPLE_CLK net6 VSS VSS sky130_fd_pr__nfet_01v8 L=0.15 W=1.26 nf=3 ad='int((nf+1)/2) * W/nf * 0.29'
+ as='int((nf+2)/2) * W/nf * 0.29' pd='2*int((nf+1)/2) * (W/nf + 0.29)' ps='2*int((nf+2)/2) * (W/nf + 0.29)'
+ nrd='0.29 / W' nrs='0.29 / W' sa=0 sb=0 sd=0 mult=1 m=1
XM16 SAMPLE_CLK net6 VDD VDD sky130_fd_pr__pfet_01v8 L=0.15 W=3.78 nf=3 ad='int((nf+1)/2) * W/nf * 0.29'
+ as='int((nf+2)/2) * W/nf * 0.29' pd='2*int((nf+1)/2) * (W/nf + 0.29)' ps='2*int((nf+2)/2) * (W/nf + 0.29)'
+ nrd='0.29 / W' nrs='0.29 / W' sa=0 sb=0 sd=0 mult=1 m=1
.ends


* expanding   symbol:  ../xschem/hgu_sarlogic_8bit_logic.sym # of pins=9
** sym_path: /foss/designs/hgu_goss/hgu/xschem/hgu_sarlogic_8bit_logic.sym
** sch_path: /foss/designs/hgu_goss/hgu/xschem/hgu_sarlogic_8bit_logic.sch
.subckt hgu_sarlogic_8bit_logic sel_bit[0] sel_bit[1] EOB clk_sar D[0] D[1] D[2] D[3] D[4] D[5] D[6]
+ D[7] comparator_out check[0] check[1] check[2] check[3] check[4] check[5] check[6] reset VDD VSS
*.ipin clk_sar
*.ipin VDD
*.ipin VSS