* NGSPICE file created from hgu_clk_sample_flat.ext - technology: sky130A

.subckt hgu_clk_sample_RC sample_clk_b vdd vss clk reset set sample_clk CAP_CTRL_CODE0[0] 
+ CAP_CTRL_CODE0[1] CAP_CTRL_CODE0[2] CAP_CTRL_CODE0[3] CAP_CTRL_CODE1[0] CAP_CTRL_CODE1[1] 
+ CAP_CTRL_CODE1[2] CAP_CTRL_CODE1[3] CAP_CTRL_CODE2[0] CAP_CTRL_CODE2[1] CAP_CTRL_CODE2[2]
+ CAP_CTRL_CODE2[3] CAP_CTRL_CODE3[0] CAP_CTRL_CODE3[1] CAP_CTRL_CODE3[2] CAP_CTRL_CODE3[3] 
+ sample_delay_offset 
X0 a_11371_5456# x2.x4.OUT a_11283_5456# vss sky130_fd_pr__nfet_01v8 ad=0.0441 pd=0.63 as=0.122 ps=1.42 w=0.42 l=0.15
X1 vss a_3106_6090# a_3041_6494# vss sky130_fd_pr__nfet_01v8 ad=0.0588 pd=0.7 as=0.066 ps=0.745 w=0.42 l=0.15
X2 x2.x4.x2.floating CAP_CTRL_CODE0[0] x2.x4.x8.output_stack vss sky130_fd_pr__nfet_01v8 ad=0.122 pd=1.42 as=0.124 ps=1.43 w=0.42 l=0.15
X3 a_4687_7397# x3.A a_4599_7535# vdd sky130_fd_pr__pfet_01v8_hvt ad=0.122 pd=1.42 as=0.122 ps=1.42 w=0.42 l=0.15
X4 x2.x1.x5[6].floating x2.x1.x10.Y x2.x1.x8.output_stack vdd sky130_fd_pr__pfet_01v8 ad=0.122 pd=1.42 as=0.101 ps=0.9 w=0.42 l=0.15
X5 x7.A x2.x3.x8.output_stack a_4047_2819# vdd sky130_fd_pr__pfet_01v8_hvt ad=0.122 pd=1.42 as=0.0651 ps=0.73 w=0.42 l=0.15
X6 a_2325_6090# x1.x2.SET_B vdd vdd sky130_fd_pr__pfet_01v8_hvt ad=0.147 pd=1.23 as=0.0798 ps=0.8 w=0.42 l=0.15
X7 a_10112_1680# x2.x3.IN a_10024_1818# vdd sky130_fd_pr__pfet_01v8_hvt ad=0.122 pd=1.42 as=0.122 ps=1.42 w=0.42 l=0.15
X8 x2.x4.x8.output_stack x2.x4.x10.Y x2.x4.x5[6].floating vdd sky130_fd_pr__pfet_01v8 ad=0.101 pd=0.9 as=0.122 ps=1.42 w=0.42 l=0.15
X9 a_10472_6534# x2.x4.x8.output_stack x2.x4.OUT vdd sky130_fd_pr__pfet_01v8_hvt ad=0.0651 pd=0.73 as=0.122 ps=1.42 w=0.42 l=0.15
X10 a_3340_6116# a_2932_6494# a_3106_6090# vdd sky130_fd_pr__pfet_01v8_hvt ad=0.0882 pd=1.05 as=0.123 ps=1.17 w=0.84 l=0.15
X11 a_10065_3897# x2.x3.IN a_9977_3897# vss sky130_fd_pr__nfet_01v8 ad=0.0441 pd=0.63 as=0.122 ps=1.42 w=0.42 l=0.15
X12 a_2325_6090# a_2151_6116# a_2465_6482# vss sky130_fd_pr__nfet_01v8 ad=0.0864 pd=0.91 as=0.101 ps=0.99 w=0.64 l=0.15
X13 a_11396_7121# x2.x4.OUT a_11308_6983# vdd sky130_fd_pr__pfet_01v8_hvt ad=0.122 pd=1.42 as=0.122 ps=1.42 w=0.42 l=0.15
X14 x2.x1.x10.Y CAP_CTRL_CODE1[3] vdd vdd sky130_fd_pr__pfet_01v8_hvt ad=0.26 pd=2.52 as=0.26 ps=2.52 w=1 l=0.15
X15 x2.x4.x10.Y CAP_CTRL_CODE0[3] vss vss sky130_fd_pr__nfet_01v8 ad=0.169 pd=1.82 as=0.169 ps=1.82 w=0.65 l=0.15
X16 a_2151_6116# a_1870_6122# a_2058_6116# vdd sky130_fd_pr__pfet_01v8_hvt ad=0.0567 pd=0.69 as=0.0662 ps=0.735 w=0.42 l=0.15
X17 a_4734_5594# x3.A a_4662_5594# vss sky130_fd_pr__nfet_01v8 ad=0.122 pd=1.42 as=0.0441 ps=0.63 w=0.42 l=0.15
X18 x2.x2.x5[6].floating x2.x2.x10.Y x2.x2.x8.output_stack vdd sky130_fd_pr__pfet_01v8 ad=0.122 pd=1.42 as=0.101 ps=0.9 w=0.42 l=0.15
X19 vss a_2678_2626# sample_clk vss sky130_fd_pr__nfet_01v8 ad=0.13 pd=1.46 as=0.0693 ps=0.75 w=0.42 l=0.15
X20 a_16846_3483# x2.x2.IN a_16774_3483# vss sky130_fd_pr__nfet_01v8 ad=0.122 pd=1.42 as=0.0441 ps=0.63 w=0.42 l=0.15
X21 x2.x2.x11.Y sample_delay_offset vdd vdd sky130_fd_pr__pfet_01v8_hvt ad=0.26 pd=2.52 as=0.26 ps=2.52 w=1 l=0.15
X22 vdd a_3106_6090# a_3813_6132# vdd sky130_fd_pr__pfet_01v8_hvt ad=0.149 pd=1.33 as=0.166 ps=1.8 w=0.64 l=0.15
X23 vdd x3.B x3.Y vdd sky130_fd_pr__pfet_01v8_hvt ad=0.26 pd=2.52 as=0.135 ps=1.27 w=1 l=0.15
X24 x2.x3.x8.output_stack CAP_CTRL_CODE3[2] x2.x3.x4[3].floating vss sky130_fd_pr__nfet_01v8 ad=0.0966 pd=0.88 as=0.122 ps=1.42 w=0.42 l=0.15
X25 vdd a_2678_2626# sample_clk vdd sky130_fd_pr__pfet_01v8 ad=0.391 pd=3.14 as=0.208 ps=1.59 w=1.26 l=0.15
X26 a_17181_6534# x2.x1.x8.output_stack x2.x2.IN vdd sky130_fd_pr__pfet_01v8_hvt ad=0.0651 pd=0.73 as=0.122 ps=1.42 w=0.42 l=0.15
X27 x3.A a_3813_6132# vdd vdd sky130_fd_pr__pfet_01v8_hvt ad=0.26 pd=2.52 as=0.149 ps=1.33 w=1 l=0.15
X28 x2.x2.x7.floating sample_delay_offset x2.x2.x8.output_stack vss sky130_fd_pr__nfet_01v8 ad=0.122 pd=1.42 as=0.122 ps=1.42 w=0.42 l=0.15
X29 x2.x1.x8.output_stack x2.x1.x11.Y x2.x1.x6.floating vdd sky130_fd_pr__pfet_01v8 ad=0.122 pd=1.42 as=0.122 ps=1.42 w=0.42 l=0.15
X30 a_10472_6193# x2.x4.OUT vdd vss sky130_fd_pr__nfet_01v8 ad=0.13 pd=1.46 as=0.0693 ps=0.75 w=0.42 l=0.15
X31 vdd CAP_CTRL_CODE3[3] x2.x3.x10.Y vdd sky130_fd_pr__pfet_01v8_hvt ad=0.26 pd=2.52 as=0.26 ps=2.52 w=1 l=0.15
X32 vdd a_2678_2006# sample_clk_b vdd sky130_fd_pr__pfet_01v8 ad=0.208 pd=1.59 as=0.391 ps=3.14 w=1.26 l=0.15
X33 a_4662_5180# x3.A a_4574_5180# vss sky130_fd_pr__nfet_01v8 ad=0.0441 pd=0.63 as=0.122 ps=1.42 w=0.42 l=0.15
X34 vss x2.x4.OUT a_11371_5180# vss sky130_fd_pr__nfet_01v8 ad=0.122 pd=1.42 as=0.0441 ps=0.63 w=0.42 l=0.15
X35 a_16846_3759# x2.x2.IN a_16774_3759# vss sky130_fd_pr__nfet_01v8 ad=0.122 pd=1.42 as=0.0441 ps=0.63 w=0.42 l=0.15
X36 a_4047_3022# x7.A vdd vss sky130_fd_pr__nfet_01v8 ad=0.0651 pd=0.73 as=0.0693 ps=0.75 w=0.42 l=0.15
X37 a_11371_5870# x2.x4.OUT a_11283_5732# vss sky130_fd_pr__nfet_01v8 ad=0.0441 pd=0.63 as=0.122 ps=1.42 w=0.42 l=0.15
X38 x2.x1.x8.output_stack x2.x1.x10.Y x2.x1.x5[6].floating vdd sky130_fd_pr__pfet_01v8 ad=0.101 pd=0.9 as=0.122 ps=1.42 w=0.42 l=0.15
X39 a_16774_4173# x2.x2.IN vss vss sky130_fd_pr__nfet_01v8 ad=0.0441 pd=0.63 as=0.122 ps=1.42 w=0.42 l=0.15
X40 x2.x3.x5[6].floating x2.x3.x10.Y x2.x3.x8.output_stack vdd sky130_fd_pr__pfet_01v8 ad=0.122 pd=1.42 as=0.101 ps=0.9 w=0.42 l=0.15
X41 x2.x4.x8.output_stack CAP_CTRL_CODE0[2] x2.x4.x4[3].floating vss sky130_fd_pr__nfet_01v8 ad=0.0966 pd=0.88 as=0.122 ps=1.42 w=0.42 l=0.15
X42 a_4662_5456# x3.A a_4574_5456# vss sky130_fd_pr__nfet_01v8 ad=0.0441 pd=0.63 as=0.122 ps=1.42 w=0.42 l=0.15
X43 a_11443_5318# x2.x4.OUT a_11371_5456# vss sky130_fd_pr__nfet_01v8 ad=0.122 pd=1.42 as=0.0441 ps=0.63 w=0.42 l=0.15
X44 x2.x1.x5[6].floating x2.x1.x10.Y x2.x1.x8.output_stack vdd sky130_fd_pr__pfet_01v8 ad=0.122 pd=1.42 as=0.101 ps=0.9 w=0.42 l=0.15
X45 a_16774_3345# x2.x2.IN a_16686_3345# vss sky130_fd_pr__nfet_01v8 ad=0.0441 pd=0.63 as=0.122 ps=1.42 w=0.42 l=0.15
X46 x2.x3.x8.output_stack x2.x3.x10.Y x2.x3.x5[6].floating vdd sky130_fd_pr__pfet_01v8 ad=0.101 pd=0.9 as=0.122 ps=1.42 w=0.42 l=0.15
X47 x2.x4.x5[6].floating x2.x4.x10.Y x2.x4.x8.output_stack vdd sky130_fd_pr__pfet_01v8 ad=0.122 pd=1.42 as=0.101 ps=0.9 w=0.42 l=0.15
X48 a_17181_6534# x2.x2.IN vss vdd sky130_fd_pr__pfet_01v8_hvt ad=0.13 pd=1.46 as=0.0693 ps=0.75 w=0.42 l=0.15
X49 x2.x1.x8.output_stack sample_delay_offset x2.x1.x7.floating vss sky130_fd_pr__nfet_01v8 ad=0.122 pd=1.42 as=0.122 ps=1.42 w=0.42 l=0.15
X50 vdd a_3056_2150# a_2678_2006# vdd sky130_fd_pr__pfet_01v8 ad=0.365 pd=3.1 as=0.365 ps=3.1 w=1.26 l=0.15
X51 x2.x3.x5[6].floating x2.x3.x10.Y x2.x3.x8.output_stack vdd sky130_fd_pr__pfet_01v8 ad=0.122 pd=1.42 as=0.101 ps=0.9 w=0.42 l=0.15
X52 x2.x1.x8.output_stack x2.x1.x10.Y x2.x1.x5[6].floating vdd sky130_fd_pr__pfet_01v8 ad=0.101 pd=0.9 as=0.122 ps=1.42 w=0.42 l=0.15
X53 x1.x2.RESET_B reset vdd vdd sky130_fd_pr__pfet_01v8_hvt ad=0.26 pd=2.52 as=0.26 ps=2.52 w=1 l=0.15
X54 a_10137_3759# x2.x3.IN a_10065_3897# vss sky130_fd_pr__nfet_01v8 ad=0.122 pd=1.42 as=0.0441 ps=0.63 w=0.42 l=0.15
X55 vss a_2678_2006# sample_clk_b vss sky130_fd_pr__nfet_01v8 ad=0.0693 pd=0.75 as=0.13 ps=1.46 w=0.42 l=0.15
X56 x2.x2.x8.output_stack x2.x2.x10.Y x2.x2.x5[6].floating vdd sky130_fd_pr__pfet_01v8 ad=0.101 pd=0.9 as=0.122 ps=1.42 w=0.42 l=0.15
X57 x2.x1.x5[6].floating x2.x1.x10.Y x2.x1.x8.output_stack vdd sky130_fd_pr__pfet_01v8 ad=0.122 pd=1.42 as=0.101 ps=0.9 w=0.42 l=0.15
X58 a_11371_6146# x2.x4.OUT a_11283_6008# vss sky130_fd_pr__nfet_01v8 ad=0.0441 pd=0.63 as=0.122 ps=1.42 w=0.42 l=0.15
X59 a_4687_7121# x3.A a_4599_6983# vdd sky130_fd_pr__pfet_01v8_hvt ad=0.122 pd=1.42 as=0.122 ps=1.42 w=0.42 l=0.15
X60 x2.x2.x4[3].floating CAP_CTRL_CODE2[2] x2.x2.x8.output_stack vss sky130_fd_pr__nfet_01v8 ad=0.122 pd=1.42 as=0.0966 ps=0.88 w=0.42 l=0.15
X61 vdd sample_delay_offset x2.x1.x11.Y vdd sky130_fd_pr__pfet_01v8_hvt ad=0.26 pd=2.52 as=0.26 ps=2.52 w=1 l=0.15
X62 a_11371_5318# x2.x4.OUT a_11283_5180# vss sky130_fd_pr__nfet_01v8 ad=0.0441 pd=0.63 as=0.122 ps=1.42 w=0.42 l=0.15
X63 a_10112_2232# x2.x3.IN a_10024_2094# vdd sky130_fd_pr__pfet_01v8_hvt ad=0.122 pd=1.42 as=0.122 ps=1.42 w=0.42 l=0.15
X64 a_4047_2819# x7.A vss vdd sky130_fd_pr__pfet_01v8_hvt ad=0.0651 pd=0.73 as=0.0693 ps=0.75 w=0.42 l=0.15
X65 x2.x2.x8.output_stack CAP_CTRL_CODE2[2] x2.x2.x4[3].floating vss sky130_fd_pr__nfet_01v8 ad=0.0966 pd=0.88 as=0.122 ps=1.42 w=0.42 l=0.15
X66 a_2058_6116# x1.x2.D vss vss sky130_fd_pr__nfet_01v8 ad=0.066 pd=0.745 as=0.109 ps=1.36 w=0.42 l=0.15
X67 a_10065_3483# x2.x3.IN a_9977_3345# vss sky130_fd_pr__nfet_01v8 ad=0.0441 pd=0.63 as=0.122 ps=1.42 w=0.42 l=0.15
X68 vss clk a_1704_6122# vss sky130_fd_pr__nfet_01v8 ad=0.0567 pd=0.69 as=0.109 ps=1.36 w=0.42 l=0.15
X69 a_10472_6193# x2.x4.x8.output_stack vss vss sky130_fd_pr__nfet_01v8 ad=0.122 pd=1.42 as=0.122 ps=1.42 w=0.42 l=0.15
X70 x2.x1.x8.output_stack CAP_CTRL_CODE1[1] x2.x1.x3[1].floating vss sky130_fd_pr__nfet_01v8 ad=0.0966 pd=0.88 as=0.122 ps=1.42 w=0.42 l=0.15
X71 x2.x2.x6.floating x2.x2.x11.Y x2.x2.x8.output_stack vdd sky130_fd_pr__pfet_01v8 ad=0.122 pd=1.42 as=0.122 ps=1.42 w=0.42 l=0.15
X72 vss x3.A a_4662_5180# vss sky130_fd_pr__nfet_01v8 ad=0.122 pd=1.42 as=0.0441 ps=0.63 w=0.42 l=0.15
X73 a_4662_5870# x3.A a_4574_5732# vss sky130_fd_pr__nfet_01v8 ad=0.0441 pd=0.63 as=0.122 ps=1.42 w=0.42 l=0.15
X74 a_11443_5870# x2.x4.OUT a_11371_5870# vss sky130_fd_pr__nfet_01v8 ad=0.122 pd=1.42 as=0.0441 ps=0.63 w=0.42 l=0.15
X75 a_10065_3759# x2.x3.IN a_9977_3621# vss sky130_fd_pr__nfet_01v8 ad=0.0441 pd=0.63 as=0.122 ps=1.42 w=0.42 l=0.15
X76 x2.x2.x4[3].floating CAP_CTRL_CODE2[2] x2.x2.x8.output_stack vss sky130_fd_pr__nfet_01v8 ad=0.122 pd=1.42 as=0.0966 ps=0.88 w=0.42 l=0.15
X77 vdd a_3056_2936# a_2678_2626# vdd sky130_fd_pr__pfet_01v8 ad=0.365 pd=3.1 as=0.365 ps=3.1 w=1.26 l=0.15
X78 vss a_2325_6090# a_2259_6494# vss sky130_fd_pr__nfet_01v8 ad=0.084 pd=0.82 as=0.0671 ps=0.75 w=0.42 l=0.15
X79 a_3106_6090# x1.x2.SET_B vdd vdd sky130_fd_pr__pfet_01v8_hvt ad=0.123 pd=1.17 as=0.0819 ps=0.81 w=0.42 l=0.15
X80 x2.x4.x8.output_stack x2.x4.x10.Y x2.x4.x5[6].floating vdd sky130_fd_pr__pfet_01v8 ad=0.101 pd=0.9 as=0.122 ps=1.42 w=0.42 l=0.15
X81 a_16846_4035# x2.x2.IN a_16774_4173# vss sky130_fd_pr__nfet_01v8 ad=0.122 pd=1.42 as=0.0441 ps=0.63 w=0.42 l=0.15
X82 x2.x4.x5[6].floating x2.x4.x10.Y x2.x4.x8.output_stack vdd sky130_fd_pr__pfet_01v8 ad=0.122 pd=1.42 as=0.101 ps=0.9 w=0.42 l=0.15
X83 a_17181_6193# x2.x1.x8.output_stack vss vss sky130_fd_pr__nfet_01v8 ad=0.122 pd=1.42 as=0.122 ps=1.42 w=0.42 l=0.15
X84 a_4734_5318# x3.A a_4662_5456# vss sky130_fd_pr__nfet_01v8 ad=0.122 pd=1.42 as=0.0441 ps=0.63 w=0.42 l=0.15
X85 x2.x3.x11.Y sample_delay_offset vdd vdd sky130_fd_pr__pfet_01v8_hvt ad=0.26 pd=2.52 as=0.26 ps=2.52 w=1 l=0.15
X86 x2.x3.x8.output_stack x2.x3.x10.Y x2.x3.x5[6].floating vdd sky130_fd_pr__pfet_01v8 ad=0.101 pd=0.9 as=0.122 ps=1.42 w=0.42 l=0.15
X87 sample_clk a_2678_2626# vss vss sky130_fd_pr__nfet_01v8 ad=0.0693 pd=0.75 as=0.0693 ps=0.75 w=0.42 l=0.15
X88 vdd a_3106_6090# a_3018_6116# vdd sky130_fd_pr__pfet_01v8_hvt ad=0.0819 pd=0.81 as=0.0924 ps=0.86 w=0.42 l=0.15
X89 x2.x4.x8.output_stack sample_delay_offset x2.x4.x7.floating vss sky130_fd_pr__nfet_01v8 ad=0.122 pd=1.42 as=0.122 ps=1.42 w=0.42 l=0.15
X90 a_16846_3207# x2.x2.IN a_16774_3345# vss sky130_fd_pr__nfet_01v8 ad=0.122 pd=1.42 as=0.0441 ps=0.63 w=0.42 l=0.15
X91 vss x2.x2.x8.output_stack a_10756_3022# vss sky130_fd_pr__nfet_01v8 ad=0.122 pd=1.42 as=0.122 ps=1.42 w=0.42 l=0.15
X92 sample_clk a_2678_2626# vdd vdd sky130_fd_pr__pfet_01v8 ad=0.208 pd=1.59 as=0.208 ps=1.59 w=1.26 l=0.15
X93 vss x7.A x3.B vss sky130_fd_pr__nfet_01v8 ad=0.169 pd=1.82 as=0.169 ps=1.82 w=0.65 l=0.15
X94 a_3106_6090# a_2932_6494# a_3222_6482# vss sky130_fd_pr__nfet_01v8 ad=0.0864 pd=0.91 as=0.12 ps=1.08 w=0.64 l=0.15
X95 vdd x2.x4.OUT a_10472_6193# vss sky130_fd_pr__nfet_01v8 ad=0.0693 pd=0.75 as=0.0651 ps=0.73 w=0.42 l=0.15
X96 a_11371_5732# x2.x4.OUT a_11283_5732# vss sky130_fd_pr__nfet_01v8 ad=0.0441 pd=0.63 as=0.122 ps=1.42 w=0.42 l=0.15
X97 x2.x3.x8.output_stack x2.x3.x10.Y x2.x3.x5[6].floating vdd sky130_fd_pr__pfet_01v8 ad=0.101 pd=0.9 as=0.122 ps=1.42 w=0.42 l=0.15
X98 vdd x7.A a_4047_3022# vss sky130_fd_pr__nfet_01v8 ad=0.0693 pd=0.75 as=0.13 ps=1.46 w=0.42 l=0.15
X99 a_11396_7397# x2.x4.OUT a_11308_7259# vdd sky130_fd_pr__pfet_01v8_hvt ad=0.122 pd=1.42 as=0.122 ps=1.42 w=0.42 l=0.15
X100 a_3222_6482# x1.x2.SET_B vss vss sky130_fd_pr__nfet_01v8 ad=0.12 pd=1.08 as=0.0588 ps=0.7 w=0.42 l=0.15
X101 x1.x2.D a_3106_6090# vss vss sky130_fd_pr__nfet_01v8 ad=0.169 pd=1.82 as=0.097 ps=0.975 w=0.65 l=0.15
X102 a_4662_6146# x3.A a_4574_6008# vss sky130_fd_pr__nfet_01v8 ad=0.0441 pd=0.63 as=0.122 ps=1.42 w=0.42 l=0.15
X103 x2.x1.x8.output_stack x2.x4.OUT a_11371_6146# vss sky130_fd_pr__nfet_01v8 ad=0.122 pd=1.42 as=0.0441 ps=0.63 w=0.42 l=0.15
X104 vdd a_2619_6316# a_2569_6116# vdd sky130_fd_pr__pfet_01v8_hvt ad=0.225 pd=1.38 as=0.113 ps=1.11 w=0.84 l=0.15
X105 x2.x3.x4[3].floating CAP_CTRL_CODE3[2] x2.x3.x8.output_stack vss sky130_fd_pr__nfet_01v8 ad=0.122 pd=1.42 as=0.0966 ps=0.88 w=0.42 l=0.15
X106 vdd sample_delay_offset x2.x4.x11.Y vdd sky130_fd_pr__pfet_01v8_hvt ad=0.26 pd=2.52 as=0.26 ps=2.52 w=1 l=0.15
X107 a_4662_5318# x3.A a_4574_5180# vss sky130_fd_pr__nfet_01v8 ad=0.0441 pd=0.63 as=0.122 ps=1.42 w=0.42 l=0.15
X108 a_16774_4035# x2.x2.IN a_16686_3897# vss sky130_fd_pr__nfet_01v8 ad=0.0441 pd=0.63 as=0.122 ps=1.42 w=0.42 l=0.15
X109 a_11443_5318# x2.x4.OUT a_11371_5318# vss sky130_fd_pr__nfet_01v8 ad=0.122 pd=1.42 as=0.0441 ps=0.63 w=0.42 l=0.15
X110 a_10472_6534# x2.x4.OUT vss vdd sky130_fd_pr__pfet_01v8_hvt ad=0.13 pd=1.46 as=0.0693 ps=0.75 w=0.42 l=0.15
X111 x2.x4.x3[1].floating CAP_CTRL_CODE0[1] x2.x4.x8.output_stack vss sky130_fd_pr__nfet_01v8 ad=0.122 pd=1.42 as=0.0966 ps=0.88 w=0.42 l=0.15
X112 a_10137_3483# x2.x3.IN a_10065_3483# vss sky130_fd_pr__nfet_01v8 ad=0.122 pd=1.42 as=0.0441 ps=0.63 w=0.42 l=0.15
X113 x2.x2.x8.output_stack CAP_CTRL_CODE2[1] x2.x2.x3[1].floating vss sky130_fd_pr__nfet_01v8 ad=0.0966 pd=0.88 as=0.122 ps=1.42 w=0.42 l=0.15
X114 a_16774_3207# x2.x2.IN x2.x2.x8.output_stack vss sky130_fd_pr__nfet_01v8 ad=0.0441 pd=0.63 as=0.122 ps=1.42 w=0.42 l=0.15
X115 x2.x1.x5[6].floating x2.x1.x10.Y x2.x1.x8.output_stack vdd sky130_fd_pr__pfet_01v8 ad=0.122 pd=1.42 as=0.101 ps=0.9 w=0.42 l=0.15
X116 vdd x2.x2.IN a_17181_6193# vss sky130_fd_pr__nfet_01v8 ad=0.0693 pd=0.75 as=0.0651 ps=0.73 w=0.42 l=0.15
X117 a_16821_1956# x2.x2.IN a_16733_2094# vdd sky130_fd_pr__pfet_01v8_hvt ad=0.122 pd=1.42 as=0.122 ps=1.42 w=0.42 l=0.15
X118 vdd x2.x2.x8.output_stack a_10756_2819# vdd sky130_fd_pr__pfet_01v8_hvt ad=0.122 pd=1.42 as=0.122 ps=1.42 w=0.42 l=0.15
X119 a_2465_6482# a_2619_6316# a_2325_6090# vss sky130_fd_pr__nfet_01v8 ad=0.166 pd=1.8 as=0.0864 ps=0.91 w=0.64 l=0.15
X120 x2.x4.x8.output_stack CAP_CTRL_CODE0[1] x2.x4.x3[1].floating vss sky130_fd_pr__nfet_01v8 ad=0.0966 pd=0.88 as=0.122 ps=1.42 w=0.42 l=0.15
X121 x2.x2.x5[6].floating x2.x2.x10.Y x2.x2.x8.output_stack vdd sky130_fd_pr__pfet_01v8 ad=0.122 pd=1.42 as=0.101 ps=0.9 w=0.42 l=0.15
X122 x2.x1.x8.output_stack CAP_CTRL_CODE1[2] x2.x1.x4[3].floating vss sky130_fd_pr__nfet_01v8 ad=0.0966 pd=0.88 as=0.122 ps=1.42 w=0.42 l=0.15
X123 x2.x2.x8.output_stack CAP_CTRL_CODE2[0] x2.x2.x2.floating vss sky130_fd_pr__nfet_01v8 ad=0.124 pd=1.43 as=0.122 ps=1.42 w=0.42 l=0.15
X124 x2.x1.x4[3].floating CAP_CTRL_CODE1[2] x2.x1.x8.output_stack vss sky130_fd_pr__nfet_01v8 ad=0.122 pd=1.42 as=0.0966 ps=0.88 w=0.42 l=0.15
X125 a_4734_5870# x3.A a_4662_5870# vss sky130_fd_pr__nfet_01v8 ad=0.122 pd=1.42 as=0.0441 ps=0.63 w=0.42 l=0.15
X126 a_10137_3759# x2.x3.IN a_10065_3759# vss sky130_fd_pr__nfet_01v8 ad=0.122 pd=1.42 as=0.0441 ps=0.63 w=0.42 l=0.15
X127 a_2235_6116# a_1704_6122# a_2151_6116# vdd sky130_fd_pr__pfet_01v8_hvt ad=0.0945 pd=0.87 as=0.0567 ps=0.69 w=0.42 l=0.15
X128 a_3553_3025# x3.A x3.Y vss sky130_fd_pr__nfet_01v8 ad=0.0878 pd=0.92 as=0.169 ps=1.82 w=0.65 l=0.15
X129 a_11371_6008# x2.x4.OUT a_11283_6008# vss sky130_fd_pr__nfet_01v8 ad=0.0441 pd=0.63 as=0.122 ps=1.42 w=0.42 l=0.15
X130 a_10065_4173# x2.x3.IN vss vss sky130_fd_pr__nfet_01v8 ad=0.0441 pd=0.63 as=0.122 ps=1.42 w=0.42 l=0.15
X131 vss x7.A a_4047_2819# vdd sky130_fd_pr__pfet_01v8_hvt ad=0.0693 pd=0.75 as=0.13 ps=1.46 w=0.42 l=0.15
X132 vdd a_2619_6316# a_3340_6116# vdd sky130_fd_pr__pfet_01v8_hvt ad=0.218 pd=2.2 as=0.0882 ps=1.05 w=0.84 l=0.15
X133 a_10065_3345# x2.x3.IN a_9977_3345# vss sky130_fd_pr__nfet_01v8 ad=0.0441 pd=0.63 as=0.122 ps=1.42 w=0.42 l=0.15
X134 vss x3.Y a_3056_2936# vss sky130_fd_pr__nfet_01v8 ad=0.122 pd=1.42 as=0.122 ps=1.42 w=0.42 l=0.15
X135 a_1870_6122# a_1704_6122# vdd vdd sky130_fd_pr__pfet_01v8_hvt ad=0.166 pd=1.8 as=0.0864 ps=0.91 w=0.64 l=0.15
X136 x2.x1.x8.output_stack x2.x4.OUT a_11308_6983# vdd sky130_fd_pr__pfet_01v8_hvt ad=0.122 pd=1.42 as=0.122 ps=1.42 w=0.42 l=0.15
X137 a_4662_5732# x3.A a_4574_5732# vss sky130_fd_pr__nfet_01v8 ad=0.0441 pd=0.63 as=0.122 ps=1.42 w=0.42 l=0.15
X138 a_11443_5594# x2.x4.OUT a_11371_5732# vss sky130_fd_pr__nfet_01v8 ad=0.122 pd=1.42 as=0.0441 ps=0.63 w=0.42 l=0.15
X139 a_4687_7397# x3.A a_4599_7259# vdd sky130_fd_pr__pfet_01v8_hvt ad=0.122 pd=1.42 as=0.122 ps=1.42 w=0.42 l=0.15
X140 x2.x4.x8.output_stack x3.A a_4662_6146# vss sky130_fd_pr__nfet_01v8 ad=0.122 pd=1.42 as=0.0441 ps=0.63 w=0.42 l=0.15
X141 x1.x2.SET_B set vss vss sky130_fd_pr__nfet_01v8 ad=0.169 pd=1.82 as=0.169 ps=1.82 w=0.65 l=0.15
X142 a_16774_3621# x2.x2.IN a_16686_3621# vss sky130_fd_pr__nfet_01v8 ad=0.0441 pd=0.63 as=0.122 ps=1.42 w=0.42 l=0.15
X143 vss CAP_CTRL_CODE2[3] x2.x2.x10.Y vss sky130_fd_pr__nfet_01v8 ad=0.169 pd=1.82 as=0.169 ps=1.82 w=0.65 l=0.15
X144 x2.x4.x8.output_stack x2.x4.x11.Y x2.x4.x6.floating vdd sky130_fd_pr__pfet_01v8 ad=0.122 pd=1.42 as=0.122 ps=1.42 w=0.42 l=0.15
X145 a_16846_4035# x2.x2.IN a_16774_4035# vss sky130_fd_pr__nfet_01v8 ad=0.122 pd=1.42 as=0.0441 ps=0.63 w=0.42 l=0.15
X146 a_4734_5318# x3.A a_4662_5318# vss sky130_fd_pr__nfet_01v8 ad=0.122 pd=1.42 as=0.0441 ps=0.63 w=0.42 l=0.15
X147 vss a_2678_2626# sample_clk vss sky130_fd_pr__nfet_01v8 ad=0.0693 pd=0.75 as=0.13 ps=1.46 w=0.42 l=0.15
X148 a_16821_1680# x2.x2.IN vdd vdd sky130_fd_pr__pfet_01v8_hvt ad=0.122 pd=1.42 as=0.122 ps=1.42 w=0.42 l=0.15
X149 x2.x3.x8.output_stack CAP_CTRL_CODE3[1] x2.x3.x3[1].floating vss sky130_fd_pr__nfet_01v8 ad=0.0966 pd=0.88 as=0.122 ps=1.42 w=0.42 l=0.15
X150 a_16846_3207# x2.x2.IN a_16774_3207# vss sky130_fd_pr__nfet_01v8 ad=0.122 pd=1.42 as=0.0441 ps=0.63 w=0.42 l=0.15
X151 x2.x3.IN x2.x2.x8.output_stack a_10756_3022# vss sky130_fd_pr__nfet_01v8 ad=0.122 pd=1.42 as=0.0651 ps=0.73 w=0.42 l=0.15
X152 a_2058_6116# x1.x2.D vdd vdd sky130_fd_pr__pfet_01v8_hvt ad=0.0662 pd=0.735 as=0.109 ps=1.36 w=0.42 l=0.15
X153 vdd a_2678_2626# sample_clk vdd sky130_fd_pr__pfet_01v8 ad=0.208 pd=1.59 as=0.391 ps=3.14 w=1.26 l=0.15
X154 vss a_3056_2936# a_2678_2626# vss sky130_fd_pr__nfet_01v8 ad=0.122 pd=1.42 as=0.122 ps=1.42 w=0.42 l=0.15
X155 x2.x4.x8.output_stack CAP_CTRL_CODE0[2] x2.x4.x4[3].floating vss sky130_fd_pr__nfet_01v8 ad=0.0966 pd=0.88 as=0.122 ps=1.42 w=0.42 l=0.15
X156 x2.x3.x8.output_stack CAP_CTRL_CODE3[0] x2.x3.x2.floating vss sky130_fd_pr__nfet_01v8 ad=0.124 pd=1.43 as=0.122 ps=1.42 w=0.42 l=0.15
X157 x2.x4.x10.Y CAP_CTRL_CODE0[3] vdd vdd sky130_fd_pr__pfet_01v8_hvt ad=0.26 pd=2.52 as=0.26 ps=2.52 w=1 l=0.15
X158 a_3018_6116# a_1870_6122# a_2932_6494# vdd sky130_fd_pr__pfet_01v8_hvt ad=0.0924 pd=0.86 as=0.0567 ps=0.69 w=0.42 l=0.15
X159 x2.x4.x4[3].floating CAP_CTRL_CODE0[2] x2.x4.x8.output_stack vss sky130_fd_pr__nfet_01v8 ad=0.122 pd=1.42 as=0.0966 ps=0.88 w=0.42 l=0.15
X160 a_16821_1956# x2.x2.IN a_16733_1818# vdd sky130_fd_pr__pfet_01v8_hvt ad=0.122 pd=1.42 as=0.122 ps=1.42 w=0.42 l=0.15
X161 a_11396_7121# x2.x4.OUT a_11308_7259# vdd sky130_fd_pr__pfet_01v8_hvt ad=0.122 pd=1.42 as=0.122 ps=1.42 w=0.42 l=0.15
X162 a_2932_6494# a_1870_6122# a_2837_6438# vss sky130_fd_pr__nfet_01v8 ad=0.0711 pd=0.755 as=0.0935 ps=0.965 w=0.36 l=0.15
X163 x2.x3.x5[6].floating x2.x3.x10.Y x2.x3.x8.output_stack vdd sky130_fd_pr__pfet_01v8 ad=0.122 pd=1.42 as=0.101 ps=0.9 w=0.42 l=0.15
X164 a_4662_6008# x3.A a_4574_6008# vss sky130_fd_pr__nfet_01v8 ad=0.0441 pd=0.63 as=0.122 ps=1.42 w=0.42 l=0.15
X165 a_11443_5870# x2.x4.OUT a_11371_6008# vss sky130_fd_pr__nfet_01v8 ad=0.122 pd=1.42 as=0.0441 ps=0.63 w=0.42 l=0.15
X166 vdd a_2325_6090# a_2235_6116# vdd sky130_fd_pr__pfet_01v8_hvt ad=0.0798 pd=0.8 as=0.0945 ps=0.87 w=0.42 l=0.15
X167 x2.x1.x8.output_stack x2.x1.x10.Y x2.x1.x5[6].floating vdd sky130_fd_pr__pfet_01v8 ad=0.101 pd=0.9 as=0.122 ps=1.42 w=0.42 l=0.15
X168 a_10137_4035# x2.x3.IN a_10065_4173# vss sky130_fd_pr__nfet_01v8 ad=0.122 pd=1.42 as=0.0441 ps=0.63 w=0.42 l=0.15
X169 x2.x3.x7.floating sample_delay_offset x2.x3.x8.output_stack vss sky130_fd_pr__nfet_01v8 ad=0.122 pd=1.42 as=0.122 ps=1.42 w=0.42 l=0.15
X170 vss x2.x4.OUT a_10472_6534# vdd sky130_fd_pr__pfet_01v8_hvt ad=0.0693 pd=0.75 as=0.0651 ps=0.73 w=0.42 l=0.15
X171 a_10137_3207# x2.x3.IN a_10065_3345# vss sky130_fd_pr__nfet_01v8 ad=0.122 pd=1.42 as=0.0441 ps=0.63 w=0.42 l=0.15
X172 x2.x1.x10.Y CAP_CTRL_CODE1[3] vss vss sky130_fd_pr__nfet_01v8 ad=0.169 pd=1.82 as=0.169 ps=1.82 w=0.65 l=0.15
X173 a_3041_6494# a_1704_6122# a_2932_6494# vss sky130_fd_pr__nfet_01v8 ad=0.066 pd=0.745 as=0.0711 ps=0.755 w=0.36 l=0.15
X174 x2.x4.x8.output_stack x3.A a_4599_6983# vdd sky130_fd_pr__pfet_01v8_hvt ad=0.122 pd=1.42 as=0.122 ps=1.42 w=0.42 l=0.15
X175 x2.x1.x2.floating CAP_CTRL_CODE1[0] x2.x1.x8.output_stack vss sky130_fd_pr__nfet_01v8 ad=0.122 pd=1.42 as=0.124 ps=1.43 w=0.42 l=0.15
X176 a_4734_5594# x3.A a_4662_5732# vss sky130_fd_pr__nfet_01v8 ad=0.122 pd=1.42 as=0.0441 ps=0.63 w=0.42 l=0.15
X177 x2.x2.x8.output_stack CAP_CTRL_CODE2[2] x2.x2.x4[3].floating vss sky130_fd_pr__nfet_01v8 ad=0.0966 pd=0.88 as=0.122 ps=1.42 w=0.42 l=0.15
X178 a_16846_3483# x2.x2.IN a_16774_3621# vss sky130_fd_pr__nfet_01v8 ad=0.122 pd=1.42 as=0.0441 ps=0.63 w=0.42 l=0.15
X179 x2.x2.x8.output_stack x2.x2.x10.Y x2.x2.x5[6].floating vdd sky130_fd_pr__pfet_01v8 ad=0.101 pd=0.9 as=0.122 ps=1.42 w=0.42 l=0.15
X180 x2.x3.IN x2.x2.x8.output_stack a_10756_2819# vdd sky130_fd_pr__pfet_01v8_hvt ad=0.122 pd=1.42 as=0.0651 ps=0.73 w=0.42 l=0.15
X181 a_10756_3022# x2.x3.IN vdd vss sky130_fd_pr__nfet_01v8 ad=0.0651 pd=0.73 as=0.0693 ps=0.75 w=0.42 l=0.15
X182 a_2151_6116# a_1704_6122# a_2058_6116# vss sky130_fd_pr__nfet_01v8 ad=0.0684 pd=0.74 as=0.066 ps=0.745 w=0.36 l=0.15
X183 vss x2.x2.IN a_17181_6534# vdd sky130_fd_pr__pfet_01v8_hvt ad=0.0693 pd=0.75 as=0.0651 ps=0.73 w=0.42 l=0.15
X184 vdd x1.x2.RESET_B a_2619_6316# vdd sky130_fd_pr__pfet_01v8_hvt ad=0.154 pd=1.34 as=0.166 ps=1.8 w=0.64 l=0.15
X185 a_10065_4035# x2.x3.IN a_9977_3897# vss sky130_fd_pr__nfet_01v8 ad=0.0441 pd=0.63 as=0.122 ps=1.42 w=0.42 l=0.15
X186 x2.x3.x6.floating x2.x3.x11.Y x2.x3.x8.output_stack vdd sky130_fd_pr__pfet_01v8 ad=0.122 pd=1.42 as=0.122 ps=1.42 w=0.42 l=0.15
X187 a_10065_3207# x2.x3.IN x2.x3.x8.output_stack vss sky130_fd_pr__nfet_01v8 ad=0.0441 pd=0.63 as=0.122 ps=1.42 w=0.42 l=0.15
X188 vdd x7.A x3.B vdd sky130_fd_pr__pfet_01v8_hvt ad=0.26 pd=2.52 as=0.26 ps=2.52 w=1 l=0.15
X189 vdd x2.x4.OUT a_11308_7535# vdd sky130_fd_pr__pfet_01v8_hvt ad=0.122 pd=1.42 as=0.122 ps=1.42 w=0.42 l=0.15
X190 vss x1.x2.RESET_B a_2619_6316# vss sky130_fd_pr__nfet_01v8 ad=0.097 pd=0.975 as=0.109 ps=1.36 w=0.42 l=0.15
X191 x2.x4.x8.output_stack x2.x4.x10.Y x2.x4.x5[6].floating vdd sky130_fd_pr__pfet_01v8 ad=0.101 pd=0.9 as=0.122 ps=1.42 w=0.42 l=0.15
X192 a_10112_1956# x2.x3.IN a_10024_2094# vdd sky130_fd_pr__pfet_01v8_hvt ad=0.122 pd=1.42 as=0.122 ps=1.42 w=0.42 l=0.15
X193 vdd a_2678_2006# sample_clk_b vdd sky130_fd_pr__pfet_01v8 ad=0.391 pd=3.14 as=0.208 ps=1.59 w=1.26 l=0.15
X194 a_2790_6116# a_2325_6090# vdd vdd sky130_fd_pr__pfet_01v8_hvt ad=0.174 pd=1.41 as=0.225 ps=1.38 w=0.84 l=0.15
X195 x2.x4.x5[6].floating x2.x4.x10.Y x2.x4.x8.output_stack vdd sky130_fd_pr__pfet_01v8 ad=0.122 pd=1.42 as=0.101 ps=0.9 w=0.42 l=0.15
X196 x2.x2.x11.Y sample_delay_offset vss vss sky130_fd_pr__nfet_01v8 ad=0.169 pd=1.82 as=0.169 ps=1.82 w=0.65 l=0.15
X197 a_4687_7121# x3.A a_4599_7259# vdd sky130_fd_pr__pfet_01v8_hvt ad=0.122 pd=1.42 as=0.122 ps=1.42 w=0.42 l=0.15
X198 vss x2.x3.x8.output_stack a_4047_3022# vss sky130_fd_pr__nfet_01v8 ad=0.122 pd=1.42 as=0.122 ps=1.42 w=0.42 l=0.15
X199 x2.x2.x5[6].floating x2.x2.x10.Y x2.x2.x8.output_stack vdd sky130_fd_pr__pfet_01v8 ad=0.122 pd=1.42 as=0.101 ps=0.9 w=0.42 l=0.15
X200 x3.A a_3813_6132# vss vss sky130_fd_pr__nfet_01v8 ad=0.169 pd=1.82 as=0.097 ps=0.975 w=0.65 l=0.15
X201 a_4734_5870# x3.A a_4662_6008# vss sky130_fd_pr__nfet_01v8 ad=0.122 pd=1.42 as=0.0441 ps=0.63 w=0.42 l=0.15
X202 vss CAP_CTRL_CODE3[3] x2.x3.x10.Y vss sky130_fd_pr__nfet_01v8 ad=0.169 pd=1.82 as=0.169 ps=1.82 w=0.65 l=0.15
X203 x2.x3.x8.output_stack CAP_CTRL_CODE3[2] x2.x3.x4[3].floating vss sky130_fd_pr__nfet_01v8 ad=0.0966 pd=0.88 as=0.122 ps=1.42 w=0.42 l=0.15
X204 a_16821_2232# x2.x2.IN x2.x2.x8.output_stack vdd sky130_fd_pr__pfet_01v8_hvt ad=0.122 pd=1.42 as=0.122 ps=1.42 w=0.42 l=0.15
X205 a_2837_6438# a_2325_6090# vss vss sky130_fd_pr__nfet_01v8 ad=0.0935 pd=0.965 as=0.166 ps=1.8 w=0.64 l=0.15
X206 x1.x2.RESET_B reset vss vss sky130_fd_pr__nfet_01v8 ad=0.169 pd=1.82 as=0.169 ps=1.82 w=0.65 l=0.15
X207 a_2465_6482# x1.x2.SET_B vss vss sky130_fd_pr__nfet_01v8 ad=0.101 pd=0.99 as=0.084 ps=0.82 w=0.42 l=0.15
X208 x1.x2.D a_3106_6090# vdd vdd sky130_fd_pr__pfet_01v8_hvt ad=0.26 pd=2.52 as=0.154 ps=1.34 w=1 l=0.15
X209 x2.x3.x4[3].floating CAP_CTRL_CODE3[2] x2.x3.x8.output_stack vss sky130_fd_pr__nfet_01v8 ad=0.122 pd=1.42 as=0.0966 ps=0.88 w=0.42 l=0.15
X210 vss x3.B a_3553_3025# vss sky130_fd_pr__nfet_01v8 ad=0.169 pd=1.82 as=0.0878 ps=0.92 w=0.65 l=0.15
X211 vss sample_delay_offset x2.x1.x11.Y vss sky130_fd_pr__nfet_01v8 ad=0.169 pd=1.82 as=0.169 ps=1.82 w=0.65 l=0.15
X212 x2.x1.x8.output_stack x2.x1.x10.Y x2.x1.x5[6].floating vdd sky130_fd_pr__pfet_01v8 ad=0.101 pd=0.9 as=0.122 ps=1.42 w=0.42 l=0.15
X213 a_10756_2819# x2.x3.IN vss vdd sky130_fd_pr__pfet_01v8_hvt ad=0.0651 pd=0.73 as=0.0693 ps=0.75 w=0.42 l=0.15
X214 a_2569_6116# a_2151_6116# a_2325_6090# vdd sky130_fd_pr__pfet_01v8_hvt ad=0.113 pd=1.11 as=0.147 ps=1.23 w=0.84 l=0.15
X215 x2.x1.x8.output_stack CAP_CTRL_CODE1[2] x2.x1.x4[3].floating vss sky130_fd_pr__nfet_01v8 ad=0.0966 pd=0.88 as=0.122 ps=1.42 w=0.42 l=0.15
X216 a_16821_1680# x2.x2.IN a_16733_1818# vdd sky130_fd_pr__pfet_01v8_hvt ad=0.122 pd=1.42 as=0.122 ps=1.42 w=0.42 l=0.15
X217 vss a_2678_2006# sample_clk_b vss sky130_fd_pr__nfet_01v8 ad=0.13 pd=1.46 as=0.0693 ps=0.75 w=0.42 l=0.15
X218 x2.x2.x8.output_stack x2.x2.x10.Y x2.x2.x5[6].floating vdd sky130_fd_pr__pfet_01v8 ad=0.101 pd=0.9 as=0.122 ps=1.42 w=0.42 l=0.15
X219 a_16774_3897# x2.x2.IN a_16686_3897# vss sky130_fd_pr__nfet_01v8 ad=0.0441 pd=0.63 as=0.122 ps=1.42 w=0.42 l=0.15
X220 x3.Y x3.A vdd vdd sky130_fd_pr__pfet_01v8_hvt ad=0.135 pd=1.27 as=0.26 ps=2.52 w=1 l=0.15
X221 x2.x2.x3[1].floating CAP_CTRL_CODE2[1] x2.x2.x8.output_stack vss sky130_fd_pr__nfet_01v8 ad=0.122 pd=1.42 as=0.0966 ps=0.88 w=0.42 l=0.15
X222 vss a_3106_6090# a_3813_6132# vss sky130_fd_pr__nfet_01v8 ad=0.097 pd=0.975 as=0.109 ps=1.36 w=0.42 l=0.15
X223 x2.x4.x5[6].floating x2.x4.x10.Y x2.x4.x8.output_stack vdd sky130_fd_pr__pfet_01v8 ad=0.122 pd=1.42 as=0.101 ps=0.9 w=0.42 l=0.15
X224 x2.x3.x8.output_stack x2.x3.x10.Y x2.x3.x5[6].floating vdd sky130_fd_pr__pfet_01v8 ad=0.101 pd=0.9 as=0.122 ps=1.42 w=0.42 l=0.15
X225 a_10065_3621# x2.x3.IN a_9977_3621# vss sky130_fd_pr__nfet_01v8 ad=0.0441 pd=0.63 as=0.122 ps=1.42 w=0.42 l=0.15
X226 vdd x2.x3.x8.output_stack a_4047_2819# vdd sky130_fd_pr__pfet_01v8_hvt ad=0.122 pd=1.42 as=0.122 ps=1.42 w=0.42 l=0.15
X227 x2.x3.x5[6].floating x2.x3.x10.Y x2.x3.x8.output_stack vdd sky130_fd_pr__pfet_01v8 ad=0.122 pd=1.42 as=0.101 ps=0.9 w=0.42 l=0.15
X228 vdd x3.Y a_3056_2936# vdd sky130_fd_pr__pfet_01v8 ad=0.406 pd=3.38 as=0.406 ps=3.38 w=1.4 l=0.15
X229 a_10472_6193# x2.x4.x8.output_stack x2.x4.OUT vss sky130_fd_pr__nfet_01v8 ad=0.0651 pd=0.73 as=0.122 ps=1.42 w=0.42 l=0.15
X230 x2.x1.x4[3].floating CAP_CTRL_CODE1[2] x2.x1.x8.output_stack vss sky130_fd_pr__nfet_01v8 ad=0.122 pd=1.42 as=0.0966 ps=0.88 w=0.42 l=0.15
X231 a_11371_5594# x2.x4.OUT a_11283_5456# vss sky130_fd_pr__nfet_01v8 ad=0.0441 pd=0.63 as=0.122 ps=1.42 w=0.42 l=0.15
X232 a_10137_4035# x2.x3.IN a_10065_4035# vss sky130_fd_pr__nfet_01v8 ad=0.122 pd=1.42 as=0.0441 ps=0.63 w=0.42 l=0.15
X233 a_10137_3207# x2.x3.IN a_10065_3207# vss sky130_fd_pr__nfet_01v8 ad=0.122 pd=1.42 as=0.0441 ps=0.63 w=0.42 l=0.15
X234 a_10112_1680# x2.x3.IN vdd vdd sky130_fd_pr__pfet_01v8_hvt ad=0.122 pd=1.42 as=0.122 ps=1.42 w=0.42 l=0.15
X235 vdd x3.A a_4599_7535# vdd sky130_fd_pr__pfet_01v8_hvt ad=0.122 pd=1.42 as=0.122 ps=1.42 w=0.42 l=0.15
X236 x2.x2.x8.output_stack x2.x2.x10.Y x2.x2.x5[6].floating vdd sky130_fd_pr__pfet_01v8 ad=0.101 pd=0.9 as=0.122 ps=1.42 w=0.42 l=0.15
X237 a_10472_6534# x2.x4.x8.output_stack vdd vdd sky130_fd_pr__pfet_01v8_hvt ad=0.122 pd=1.42 as=0.122 ps=1.42 w=0.42 l=0.15
X238 a_1870_6122# a_1704_6122# vss vss sky130_fd_pr__nfet_01v8 ad=0.109 pd=1.36 as=0.0567 ps=0.69 w=0.42 l=0.15
X239 a_17181_6193# x2.x1.x8.output_stack x2.x2.IN vss sky130_fd_pr__nfet_01v8 ad=0.0651 pd=0.73 as=0.122 ps=1.42 w=0.42 l=0.15
X240 a_10112_1956# x2.x3.IN a_10024_1818# vdd sky130_fd_pr__pfet_01v8_hvt ad=0.122 pd=1.42 as=0.122 ps=1.42 w=0.42 l=0.15
X241 vdd x2.x3.IN a_10756_3022# vss sky130_fd_pr__nfet_01v8 ad=0.0693 pd=0.75 as=0.13 ps=1.46 w=0.42 l=0.15
X242 a_2259_6494# a_1870_6122# a_2151_6116# vss sky130_fd_pr__nfet_01v8 ad=0.0671 pd=0.75 as=0.0684 ps=0.74 w=0.36 l=0.15
X243 vdd clk a_1704_6122# vdd sky130_fd_pr__pfet_01v8_hvt ad=0.0864 pd=0.91 as=0.166 ps=1.8 w=0.64 l=0.15