* NGSPICE file created from hgu_sarlogic.ext - technology: sky130A

.subckt hgu_clk_async x3.S eob x2.IN x4.x7.SW x8.X x4.code[2] x4.code[1] x2.x10.A
+ x2.code[1] x2.code[2] x4.x2.SW x4.x10.A x2.x2.SW vss vdd
X0 x4.x5[7].floating x4.x10.Y x4.x9.output_stack vdd sky130_fd_pr__pfet_01v8 ad=0.122 pd=1.42 as=0.101 ps=0.9 w=0.42 l=0.15
X1 x2.x9.output_stack x2.code[2] x2.x4[3].floating vss sky130_fd_pr__nfet_01v8 ad=0.0966 pd=0.88 as=0.122 ps=1.42 w=0.42 l=0.15
X2 x4.x3[1].floating x4.code[1] x4.x9.output_stack vss sky130_fd_pr__nfet_01v8 ad=0.122 pd=1.42 as=0.0966 ps=0.88 w=0.42 l=0.15
X3 x10.Y x10.A vss vss sky130_fd_pr__nfet_01v8 ad=0.169 pd=1.82 as=0.169 ps=1.82 w=0.65 l=0.15
X4 a_1373_1841# eob vdd vdd sky130_fd_pr__pfet_01v8_hvt ad=0.118 pd=1.4 as=0.0693 ps=0.75 w=0.42 l=0.15
X5 a_2200_1841# x3.S vdd vdd sky130_fd_pr__pfet_01v8_hvt ad=0.118 pd=1.4 as=0.0693 ps=0.75 w=0.42 l=0.15
X6 x4.x9.output_stack x4.x10.Y x4.x5[7].floating vdd sky130_fd_pr__pfet_01v8 ad=0.101 pd=0.9 as=0.122 ps=1.42 w=0.42 l=0.15
X7 x9.Y x9.A vss vss sky130_fd_pr__nfet_01v8 ad=0.169 pd=1.82 as=0.169 ps=1.82 w=0.65 l=0.15
X8 a_n6207_n1487# x2.IN a_n6295_n1487# vss sky130_fd_pr__nfet_01v8 ad=0.0441 pd=0.63 as=0.122 ps=1.42 w=0.42 l=0.15
X9 a_n6207_n797# x2.IN a_n6295_n935# vss sky130_fd_pr__nfet_01v8 ad=0.0441 pd=0.63 as=0.122 ps=1.42 w=0.42 l=0.15
X10 a_n6182_1940# x8.X a_n6270_2078# vdd sky130_fd_pr__pfet_01v8_hvt ad=0.122 pd=1.42 as=0.122 ps=1.42 w=0.42 l=0.15
X11 vss x8.X a_n6207_n277# vss sky130_fd_pr__nfet_01v8 ad=0.122 pd=1.42 as=0.0441 ps=0.63 w=0.42 l=0.15
X12 vss a_1771_1775# x3.X vss sky130_fd_pr__nfet_01v8 ad=0.113 pd=1.04 as=0.169 ps=1.82 w=0.65 l=0.15
X13 a_n397_1077# x4.x9.output_stack vdd vdd sky130_fd_pr__pfet_01v8_hvt ad=0.122 pd=1.42 as=0.122 ps=1.42 w=0.42 l=0.15
X14 x4.x9.output_stack x4.code[2] x4.x4[3].floating vss sky130_fd_pr__nfet_01v8 ad=0.0966 pd=0.88 as=0.122 ps=1.42 w=0.42 l=0.15
X15 a_n6135_413# x8.X a_n6207_413# vss sky130_fd_pr__nfet_01v8 ad=0.122 pd=1.42 as=0.0441 ps=0.63 w=0.42 l=0.15
X16 vdd x9.Y a_1363_798# vdd sky130_fd_pr__pfet_01v8_hvt ad=0.0798 pd=0.8 as=0.147 ps=1.23 w=0.42 l=0.15
X17 a_1307_1909# x3.X a_944_1775# vss sky130_fd_pr__nfet_01v8 ad=0.0693 pd=0.75 as=0.0997 ps=0.895 w=0.42 l=0.15
X18 a_818_1106# a_618_824# vdd vdd sky130_fd_pr__pfet_01v8_hvt ad=0.0882 pd=1.05 as=0.218 ps=2.2 w=0.84 l=0.15
X19 a_618_824# x10.Y vss vss sky130_fd_pr__nfet_01v8 ad=0.109 pd=1.36 as=0.097 ps=0.975 w=0.42 l=0.15
X20 vss vdd a_2077_824# vss sky130_fd_pr__nfet_01v8 ad=0.109 pd=1.36 as=0.066 ps=0.745 w=0.42 l=0.15
X21 a_n397_736# x4.x9.output_stack x10.A vss sky130_fd_pr__nfet_01v8 ad=0.0651 pd=0.73 as=0.122 ps=1.42 w=0.42 l=0.15
X22 a_2134_1909# x3.A0 a_1771_1775# vss sky130_fd_pr__nfet_01v8 ad=0.0693 pd=0.75 as=0.0997 ps=0.895 w=0.42 l=0.15
X23 a_1159_798# x3.S vdd vdd sky130_fd_pr__pfet_01v8_hvt ad=0.166 pd=1.8 as=0.0864 ps=0.91 w=0.64 l=0.15
X24 a_1403_1582# vss a_944_1775# vdd sky130_fd_pr__pfet_01v8_hvt ad=0.0441 pd=0.63 as=0.193 ps=1.34 w=0.42 l=0.15
X25 a_n397_n2289# x9.A vss vdd sky130_fd_pr__pfet_01v8_hvt ad=0.13 pd=1.46 as=0.0693 ps=0.75 w=0.42 l=0.15
X26 a_2230_1582# vss a_1771_1775# vdd sky130_fd_pr__pfet_01v8_hvt ad=0.0441 pd=0.63 as=0.193 ps=1.34 w=0.42 l=0.15
X27 a_1094_1190# a_305_798# vdd vdd sky130_fd_pr__pfet_01v8_hvt ad=0.0924 pd=0.86 as=0.0819 ps=0.81 w=0.42 l=0.15
X28 a_1296_1190# a_1159_798# a_860_798# vdd sky130_fd_pr__pfet_01v8_hvt ad=0.174 pd=1.41 as=0.0567 ps=0.69 w=0.42 l=0.15
X29 vss x9.Y a_724_824# vss sky130_fd_pr__nfet_01v8 ad=0.0588 pd=0.7 as=0.12 ps=1.08 w=0.42 l=0.15
X30 vdd x4.x7.SW x4.x6.SW vdd sky130_fd_pr__pfet_01v8_hvt ad=0.26 pd=2.52 as=0.26 ps=2.52 w=1 l=0.15
X31 a_618_824# x10.Y vdd vdd sky130_fd_pr__pfet_01v8_hvt ad=0.166 pd=1.8 as=0.154 ps=1.34 w=0.64 l=0.15
X32 a_n6207_n1# x8.X a_n6295_n1# vss sky130_fd_pr__nfet_01v8 ad=0.0441 pd=0.63 as=0.122 ps=1.42 w=0.42 l=0.15
X33 a_1363_798# a_1631_1008# a_1577_1106# vdd sky130_fd_pr__pfet_01v8_hvt ad=0.147 pd=1.23 as=0.113 ps=1.11 w=0.84 l=0.15
X34 x2.x4[3].floating x2.code[2] x2.x9.output_stack vss sky130_fd_pr__nfet_01v8 ad=0.122 pd=1.42 as=0.0966 ps=0.88 w=0.42 l=0.15
X35 a_n6207_689# x8.X a_n6295_551# vss sky130_fd_pr__nfet_01v8 ad=0.0441 pd=0.63 as=0.122 ps=1.42 w=0.42 l=0.15
X36 vss a_944_1775# x8.X vss sky130_fd_pr__nfet_01v8 ad=0.113 pd=1.04 as=0.169 ps=1.82 w=0.65 l=0.15
X37 a_n397_n1948# x2.x9.output_stack x9.A vss sky130_fd_pr__nfet_01v8 ad=0.0651 pd=0.73 as=0.122 ps=1.42 w=0.42 l=0.15
X38 a_n6182_1664# x8.X a_n6270_1526# vdd sky130_fd_pr__pfet_01v8_hvt ad=0.122 pd=1.42 as=0.122 ps=1.42 w=0.42 l=0.15
X39 a_210_798# a_305_798# vss vss sky130_fd_pr__nfet_01v8 ad=0.109 pd=1.36 as=0.097 ps=0.975 w=0.42 l=0.15
X40 a_n6182_n3152# x2.IN a_n6270_n3014# vdd sky130_fd_pr__pfet_01v8_hvt ad=0.122 pd=1.42 as=0.122 ps=1.42 w=0.42 l=0.15
X41 a_944_1775# vss a_1086_1909# vss sky130_fd_pr__nfet_01v8 ad=0.0997 pd=0.895 as=0.0693 ps=0.75 w=0.42 l=0.15
X42 a_n397_1077# x10.A vss vdd sky130_fd_pr__pfet_01v8_hvt ad=0.13 pd=1.46 as=0.0693 ps=0.75 w=0.42 l=0.15
X43 a_n6135_n1073# x2.IN a_n6207_n1073# vss sky130_fd_pr__nfet_01v8 ad=0.122 pd=1.42 as=0.0441 ps=0.63 w=0.42 l=0.15
X44 vdd x9.Y a_305_798# vdd sky130_fd_pr__pfet_01v8_hvt ad=0.0819 pd=0.81 as=0.123 ps=1.17 w=0.42 l=0.15
X45 x2.x4[3].floating x2.code[2] x2.x9.output_stack vss sky130_fd_pr__nfet_01v8 ad=0.122 pd=1.42 as=0.0966 ps=0.88 w=0.42 l=0.15
X46 a_n6207_n277# x8.X a_n6295_n277# vss sky130_fd_pr__nfet_01v8 ad=0.0441 pd=0.63 as=0.122 ps=1.42 w=0.42 l=0.15
X47 vss a_305_798# x27.Q_N vss sky130_fd_pr__nfet_01v8 ad=0.097 pd=0.975 as=0.169 ps=1.82 w=0.65 l=0.15
X48 a_n6135_n1349# x2.IN a_n6207_n1349# vss sky130_fd_pr__nfet_01v8 ad=0.122 pd=1.42 as=0.0441 ps=0.63 w=0.42 l=0.15
X49 x10.Y x10.A vdd vdd sky130_fd_pr__pfet_01v8_hvt ad=0.26 pd=2.52 as=0.26 ps=2.52 w=1 l=0.15
X50 vss x9.A a_n397_n2289# vdd sky130_fd_pr__pfet_01v8_hvt ad=0.0693 pd=0.75 as=0.0651 ps=0.73 w=0.42 l=0.15
X51 a_n6207_n1073# x2.IN a_n6295_n1211# vss sky130_fd_pr__nfet_01v8 ad=0.0441 pd=0.63 as=0.122 ps=1.42 w=0.42 l=0.15
X52 x2.x9.output_stack x4.x7.SW x2.x7.floating vss sky130_fd_pr__nfet_01v8 ad=0.122 pd=1.42 as=0.122 ps=1.42 w=0.42 l=0.15
X53 x4.x10.Y x4.x10.A vss vss sky130_fd_pr__nfet_01v8 ad=0.169 pd=1.82 as=0.169 ps=1.82 w=0.65 l=0.15
X54 a_210_798# a_305_798# vdd vdd sky130_fd_pr__pfet_01v8_hvt ad=0.166 pd=1.8 as=0.149 ps=1.33 w=0.64 l=0.15
X55 x4.x4[3].floating x4.code[2] x4.x9.output_stack vss sky130_fd_pr__nfet_01v8 ad=0.122 pd=1.42 as=0.0966 ps=0.88 w=0.42 l=0.15
X56 x2.x9.output_stack x2.IN a_n6270_n2738# vdd sky130_fd_pr__pfet_01v8_hvt ad=0.122 pd=1.42 as=0.122 ps=1.42 w=0.42 l=0.15
X57 vdd a_1373_1841# a_1403_1582# vdd sky130_fd_pr__pfet_01v8_hvt ad=0.0693 pd=0.75 as=0.0441 ps=0.63 w=0.42 l=0.15
X58 vdd a_305_798# x27.Q_N vdd sky130_fd_pr__pfet_01v8_hvt ad=0.154 pd=1.34 as=0.26 ps=2.52 w=1 l=0.15
X59 a_n6207_n1349# x2.IN a_n6295_n1487# vss sky130_fd_pr__nfet_01v8 ad=0.0441 pd=0.63 as=0.122 ps=1.42 w=0.42 l=0.15
X60 a_724_824# a_860_798# a_305_798# vss sky130_fd_pr__nfet_01v8 ad=0.12 pd=1.08 as=0.0864 ps=0.91 w=0.64 l=0.15
X61 x4.x9.output_stack x4.x10.Y x4.x5[7].floating vdd sky130_fd_pr__pfet_01v8 ad=0.101 pd=0.9 as=0.122 ps=1.42 w=0.42 l=0.15
X62 a_n397_n2289# x2.x9.output_stack vdd vdd sky130_fd_pr__pfet_01v8_hvt ad=0.122 pd=1.42 as=0.122 ps=1.42 w=0.42 l=0.15
X63 a_n6135_n139# x8.X a_n6207_n139# vss sky130_fd_pr__nfet_01v8 ad=0.122 pd=1.42 as=0.0441 ps=0.63 w=0.42 l=0.15
X64 a_2077_824# a_1159_798# a_1631_1008# vss sky130_fd_pr__nfet_01v8 ad=0.066 pd=0.745 as=0.0684 ps=0.74 w=0.36 l=0.15
X65 a_n397_736# x4.x9.output_stack vss vss sky130_fd_pr__nfet_01v8 ad=0.122 pd=1.42 as=0.122 ps=1.42 w=0.42 l=0.15
X66 a_1159_798# x3.S vss vss sky130_fd_pr__nfet_01v8 ad=0.109 pd=1.36 as=0.0567 ps=0.69 w=0.42 l=0.15
X67 a_860_798# a_1159_798# a_1094_824# vss sky130_fd_pr__nfet_01v8 ad=0.0711 pd=0.755 as=0.066 ps=0.745 w=0.36 l=0.15
X68 vss x9.Y a_1499_824# vss sky130_fd_pr__nfet_01v8 ad=0.084 pd=0.82 as=0.101 ps=0.99 w=0.42 l=0.15
X69 vss a_210_798# x3.A0 vss sky130_fd_pr__nfet_01v8 ad=0.097 pd=0.975 as=0.169 ps=1.82 w=0.65 l=0.15
X70 x2.x9.output_stack x2.IN a_n6207_n1763# vss sky130_fd_pr__nfet_01v8 ad=0.122 pd=1.42 as=0.0441 ps=0.63 w=0.42 l=0.15
X71 x4.x9.output_stack x8.X a_n6207_689# vss sky130_fd_pr__nfet_01v8 ad=0.122 pd=1.42 as=0.0441 ps=0.63 w=0.42 l=0.15
X72 a_1913_1909# x3.S vss vss sky130_fd_pr__nfet_01v8 ad=0.0693 pd=0.75 as=0.113 ps=1.04 w=0.42 l=0.15
X73 a_n6207_275# x8.X a_n6295_275# vss sky130_fd_pr__nfet_01v8 ad=0.0441 pd=0.63 as=0.122 ps=1.42 w=0.42 l=0.15
X74 a_2077_824# a_1158_1098# a_1631_1008# vdd sky130_fd_pr__pfet_01v8_hvt ad=0.0662 pd=0.735 as=0.0567 ps=0.69 w=0.42 l=0.15
X75 a_n6207_n1763# x2.IN a_n6295_n1763# vss sky130_fd_pr__nfet_01v8 ad=0.0441 pd=0.63 as=0.122 ps=1.42 w=0.42 l=0.15
X76 vss a_1159_798# a_1158_1098# vss sky130_fd_pr__nfet_01v8 ad=0.0567 pd=0.69 as=0.109 ps=1.36 w=0.42 l=0.15
X77 a_305_798# a_618_824# a_724_824# vss sky130_fd_pr__nfet_01v8 ad=0.0864 pd=0.91 as=0.166 ps=1.8 w=0.64 l=0.15
X78 a_n397_n1948# x2.x9.output_stack vss vss sky130_fd_pr__nfet_01v8 ad=0.122 pd=1.42 as=0.122 ps=1.42 w=0.42 l=0.15
X79 vss a_1363_798# a_1298_824# vss sky130_fd_pr__nfet_01v8 ad=0.166 pd=1.8 as=0.0935 ps=0.965 w=0.64 l=0.15
X80 x4.x9.output_stack x8.X a_n6270_1526# vdd sky130_fd_pr__pfet_01v8_hvt ad=0.122 pd=1.42 as=0.122 ps=1.42 w=0.42 l=0.15
X81 a_1086_1909# eob vss vss sky130_fd_pr__nfet_01v8 ad=0.0693 pd=0.75 as=0.113 ps=1.04 w=0.42 l=0.15
X82 x4.x5[7].floating x4.x10.Y x4.x9.output_stack vdd sky130_fd_pr__pfet_01v8 ad=0.122 pd=1.42 as=0.101 ps=0.9 w=0.42 l=0.15
X83 x2.x9.output_stack x2.x6.SW x2.x6.floating vdd sky130_fd_pr__pfet_01v8 ad=0.122 pd=1.42 as=0.122 ps=1.42 w=0.42 l=0.15
X84 a_n6207_n139# x8.X a_n6295_n277# vss sky130_fd_pr__nfet_01v8 ad=0.0441 pd=0.63 as=0.122 ps=1.42 w=0.42 l=0.15
X85 x9.Y x9.A vdd vdd sky130_fd_pr__pfet_01v8_hvt ad=0.26 pd=2.52 as=0.26 ps=2.52 w=1 l=0.15
X86 vss x4.x7.SW x4.x6.SW vss sky130_fd_pr__nfet_01v8 ad=0.169 pd=1.82 as=0.169 ps=1.82 w=0.65 l=0.15
X87 x4.x9.output_stack x4.x10.Y x4.x5[7].floating vdd sky130_fd_pr__pfet_01v8 ad=0.101 pd=0.9 as=0.122 ps=1.42 w=0.42 l=0.15
X88 a_n6135_n1073# x2.IN a_n6207_n935# vss sky130_fd_pr__nfet_01v8 ad=0.122 pd=1.42 as=0.0441 ps=0.63 w=0.42 l=0.15
X89 vdd x2.IN a_n6270_n3290# vdd sky130_fd_pr__pfet_01v8_hvt ad=0.122 pd=1.42 as=0.122 ps=1.42 w=0.42 l=0.15
X90 x2.x2.floating x2.x2.SW x2.x9.output_stack vss sky130_fd_pr__nfet_01v8 ad=0.122 pd=1.42 as=0.124 ps=1.43 w=0.42 l=0.15
X91 vdd a_1771_1775# x3.X vdd sky130_fd_pr__pfet_01v8_hvt ad=0.158 pd=1.39 as=0.26 ps=2.52 w=1 l=0.15
X92 a_1094_824# a_305_798# vss vss sky130_fd_pr__nfet_01v8 ad=0.066 pd=0.745 as=0.0588 ps=0.7 w=0.42 l=0.15
X93 a_305_798# a_860_798# a_818_1106# vdd sky130_fd_pr__pfet_01v8_hvt ad=0.123 pd=1.17 as=0.0882 ps=1.05 w=0.84 l=0.15
X94 x4.x9.output_stack x4.x6.SW x4.x6.floating vdd sky130_fd_pr__pfet_01v8 ad=0.122 pd=1.42 as=0.122 ps=1.42 w=0.42 l=0.15
X95 a_n6135_n139# x8.X a_n6207_n1# vss sky130_fd_pr__nfet_01v8 ad=0.122 pd=1.42 as=0.0441 ps=0.63 w=0.42 l=0.15
X96 vdd a_1363_798# a_1296_1190# vdd sky130_fd_pr__pfet_01v8_hvt ad=0.225 pd=1.38 as=0.174 ps=1.41 w=0.84 l=0.15
X97 vss x4.x7.SW x2.x6.SW vss sky130_fd_pr__nfet_01v8 ad=0.169 pd=1.82 as=0.169 ps=1.82 w=0.65 l=0.15
X98 x2.x9.output_stack x2.x10.Y x2.x5[7].floating vdd sky130_fd_pr__pfet_01v8 ad=0.101 pd=0.9 as=0.122 ps=1.42 w=0.42 l=0.15
X99 a_n397_1077# x4.x9.output_stack x10.A vdd sky130_fd_pr__pfet_01v8_hvt ad=0.0651 pd=0.73 as=0.122 ps=1.42 w=0.42 l=0.15
X100 x4.x4[3].floating x4.code[2] x4.x9.output_stack vss sky130_fd_pr__nfet_01v8 ad=0.122 pd=1.42 as=0.0966 ps=0.88 w=0.42 l=0.15
X101 a_n397_n1948# x9.A vdd vss sky130_fd_pr__nfet_01v8 ad=0.13 pd=1.46 as=0.0693 ps=0.75 w=0.42 l=0.15
X102 a_n6135_137# x8.X a_n6207_275# vss sky130_fd_pr__nfet_01v8 ad=0.122 pd=1.42 as=0.0441 ps=0.63 w=0.42 l=0.15
X103 a_n6182_1940# x8.X a_n6270_1802# vdd sky130_fd_pr__pfet_01v8_hvt ad=0.122 pd=1.42 as=0.122 ps=1.42 w=0.42 l=0.15
X104 vdd a_2200_1841# a_2230_1582# vdd sky130_fd_pr__pfet_01v8_hvt ad=0.0693 pd=0.75 as=0.0441 ps=0.63 w=0.42 l=0.15
X105 a_1875_1190# a_1363_798# vdd vdd sky130_fd_pr__pfet_01v8_hvt ad=0.0945 pd=0.87 as=0.0798 ps=0.8 w=0.42 l=0.15
X106 x2.x9.output_stack x2.x10.Y x2.x5[7].floating vdd sky130_fd_pr__pfet_01v8 ad=0.101 pd=0.9 as=0.122 ps=1.42 w=0.42 l=0.15
X107 a_n6135_n1625# x2.IN a_n6207_n1625# vss sky130_fd_pr__nfet_01v8 ad=0.122 pd=1.42 as=0.0441 ps=0.63 w=0.42 l=0.15
X108 a_n6207_137# x8.X a_n6295_n1# vss sky130_fd_pr__nfet_01v8 ad=0.0441 pd=0.63 as=0.122 ps=1.42 w=0.42 l=0.15
X109 a_1577_1106# a_618_824# vdd vdd sky130_fd_pr__pfet_01v8_hvt ad=0.113 pd=1.11 as=0.225 ps=1.38 w=0.84 l=0.15
X110 vdd a_944_1775# x8.X vdd sky130_fd_pr__pfet_01v8_hvt ad=0.158 pd=1.39 as=0.26 ps=2.52 w=1 l=0.15
X111 x4.x9.output_stack x4.x7.SW x4.x7.floating vss sky130_fd_pr__nfet_01v8 ad=0.122 pd=1.42 as=0.122 ps=1.42 w=0.42 l=0.15
X112 x4.x9.output_stack x4.code[1] x4.x3[1].floating vss sky130_fd_pr__nfet_01v8 ad=0.0966 pd=0.88 as=0.122 ps=1.42 w=0.42 l=0.15
X113 x2.x10.Y x2.x10.A vss vss sky130_fd_pr__nfet_01v8 ad=0.169 pd=1.82 as=0.169 ps=1.82 w=0.65 l=0.15
X114 a_1298_824# a_1158_1098# a_860_798# vss sky130_fd_pr__nfet_01v8 ad=0.0935 pd=0.965 as=0.0711 ps=0.755 w=0.36 l=0.15
X115 a_n6182_n2876# x2.IN a_n6270_n3014# vdd sky130_fd_pr__pfet_01v8_hvt ad=0.122 pd=1.42 as=0.122 ps=1.42 w=0.42 l=0.15
X116 a_n6207_n935# x2.IN a_n6295_n935# vss sky130_fd_pr__nfet_01v8 ad=0.0441 pd=0.63 as=0.122 ps=1.42 w=0.42 l=0.15
X117 a_1771_1775# x3.A0 a_1913_1582# vdd sky130_fd_pr__pfet_01v8_hvt ad=0.193 pd=1.34 as=0.0767 ps=0.785 w=0.42 l=0.15
X118 a_n6207_n1625# x2.IN a_n6295_n1763# vss sky130_fd_pr__nfet_01v8 ad=0.0441 pd=0.63 as=0.122 ps=1.42 w=0.42 l=0.15
X119 vdd x8.X a_n6270_2078# vdd sky130_fd_pr__pfet_01v8_hvt ad=0.122 pd=1.42 as=0.122 ps=1.42 w=0.42 l=0.15
X120 x2.x9.output_stack x2.x10.Y x2.x5[7].floating vdd sky130_fd_pr__pfet_01v8 ad=0.101 pd=0.9 as=0.122 ps=1.42 w=0.42 l=0.15
X121 a_1913_1582# x3.S vdd vdd sky130_fd_pr__pfet_01v8_hvt ad=0.0767 pd=0.785 as=0.158 ps=1.39 w=0.42 l=0.15
X122 a_1499_824# a_1631_1008# a_1363_798# vss sky130_fd_pr__nfet_01v8 ad=0.101 pd=0.99 as=0.0864 ps=0.91 w=0.64 l=0.15
X123 vdd x9.A a_n397_n1948# vss sky130_fd_pr__nfet_01v8 ad=0.0693 pd=0.75 as=0.0651 ps=0.73 w=0.42 l=0.15
X124 x4.x5[7].floating x4.x10.Y x4.x9.output_stack vdd sky130_fd_pr__pfet_01v8 ad=0.122 pd=1.42 as=0.101 ps=0.9 w=0.42 l=0.15
X125 x2.x9.output_stack x2.x10.Y x2.x5[7].floating vdd sky130_fd_pr__pfet_01v8 ad=0.101 pd=0.9 as=0.122 ps=1.42 w=0.42 l=0.15
X126 x4.x9.output_stack x4.x10.Y x4.x5[7].floating vdd sky130_fd_pr__pfet_01v8 ad=0.101 pd=0.9 as=0.122 ps=1.42 w=0.42 l=0.15
X127 a_944_1775# x3.X a_1086_1582# vdd sky130_fd_pr__pfet_01v8_hvt ad=0.193 pd=1.34 as=0.0767 ps=0.785 w=0.42 l=0.15
X128 a_n6207_551# x8.X a_n6295_551# vss sky130_fd_pr__nfet_01v8 ad=0.0441 pd=0.63 as=0.122 ps=1.42 w=0.42 l=0.15
X129 a_1086_1582# eob vdd vdd sky130_fd_pr__pfet_01v8_hvt ad=0.0767 pd=0.785 as=0.158 ps=1.39 w=0.42 l=0.15
X130 a_1363_798# a_618_824# a_1499_824# vss sky130_fd_pr__nfet_01v8 ad=0.0864 pd=0.91 as=0.166 ps=1.8 w=0.64 l=0.15
X131 a_1631_1008# a_1159_798# a_1875_1190# vdd sky130_fd_pr__pfet_01v8_hvt ad=0.0567 pd=0.69 as=0.0945 ps=0.87 w=0.42 l=0.15
X132 a_n6135_137# x8.X a_n6207_137# vss sky130_fd_pr__nfet_01v8 ad=0.122 pd=1.42 as=0.0441 ps=0.63 w=0.42 l=0.15
X133 a_n6182_1664# x8.X a_n6270_1802# vdd sky130_fd_pr__pfet_01v8_hvt ad=0.122 pd=1.42 as=0.122 ps=1.42 w=0.42 l=0.15
X134 a_n6135_n1349# x2.IN a_n6207_n1211# vss sky130_fd_pr__nfet_01v8 ad=0.122 pd=1.42 as=0.0441 ps=0.63 w=0.42 l=0.15
X135 a_1631_1008# a_1158_1098# a_1875_824# vss sky130_fd_pr__nfet_01v8 ad=0.0684 pd=0.74 as=0.0671 ps=0.75 w=0.36 l=0.15
X136 a_1875_824# a_1363_798# vss vss sky130_fd_pr__nfet_01v8 ad=0.0671 pd=0.75 as=0.084 ps=0.82 w=0.42 l=0.15
X137 vdd x10.A a_n397_736# vss sky130_fd_pr__nfet_01v8 ad=0.0693 pd=0.75 as=0.0651 ps=0.73 w=0.42 l=0.15
X138 a_n6207_n1211# x2.IN a_n6295_n1211# vss sky130_fd_pr__nfet_01v8 ad=0.0441 pd=0.63 as=0.122 ps=1.42 w=0.42 l=0.15
X139 vdd a_1159_798# a_1158_1098# vdd sky130_fd_pr__pfet_01v8_hvt ad=0.0864 pd=0.91 as=0.166 ps=1.8 w=0.64 l=0.15
X140 a_1373_1841# eob vss vss sky130_fd_pr__nfet_01v8 ad=0.109 pd=1.36 as=0.145 ps=1.11 w=0.42 l=0.15
X141 a_2200_1841# x3.S vss vss sky130_fd_pr__nfet_01v8 ad=0.109 pd=1.36 as=0.145 ps=1.11 w=0.42 l=0.15
X142 a_n397_736# x10.A vdd vss sky130_fd_pr__nfet_01v8 ad=0.13 pd=1.46 as=0.0693 ps=0.75 w=0.42 l=0.15
X143 a_n397_n2289# x2.x9.output_stack x9.A vdd sky130_fd_pr__pfet_01v8_hvt ad=0.0651 pd=0.73 as=0.122 ps=1.42 w=0.42 l=0.15
X144 x4.x5[7].floating x4.x10.Y x4.x9.output_stack vdd sky130_fd_pr__pfet_01v8 ad=0.122 pd=1.42 as=0.101 ps=0.9 w=0.42 l=0.15
X145 x4.x9.output_stack x4.code[2] x4.x4[3].floating vss sky130_fd_pr__nfet_01v8 ad=0.0966 pd=0.88 as=0.122 ps=1.42 w=0.42 l=0.15
X146 a_n6182_n2876# x2.IN a_n6270_n2738# vdd sky130_fd_pr__pfet_01v8_hvt ad=0.122 pd=1.42 as=0.122 ps=1.42 w=0.42 l=0.15
X147 x2.x9.output_stack x2.code[1] x2.x3[1].floating vss sky130_fd_pr__nfet_01v8 ad=0.0966 pd=0.88 as=0.122 ps=1.42 w=0.42 l=0.15
X148 a_860_798# a_1158_1098# a_1094_1190# vdd sky130_fd_pr__pfet_01v8_hvt ad=0.0567 pd=0.69 as=0.0924 ps=0.86 w=0.42 l=0.15
X149 vdd x4.x7.SW x2.x6.SW vdd sky130_fd_pr__pfet_01v8_hvt ad=0.26 pd=2.52 as=0.26 ps=2.52 w=1 l=0.15
X150 x2.x5[7].floating x2.x10.Y x2.x9.output_stack vdd sky130_fd_pr__pfet_01v8 ad=0.122 pd=1.42 as=0.101 ps=0.9 w=0.42 l=0.15
X151 a_n6135_413# x8.X a_n6207_551# vss sky130_fd_pr__nfet_01v8 ad=0.122 pd=1.42 as=0.0441 ps=0.63 w=0.42 l=0.15
X152 vss a_1373_1841# a_1307_1909# vss sky130_fd_pr__nfet_01v8 ad=0.145 pd=1.11 as=0.0693 ps=0.75 w=0.42 l=0.15
X153 a_1771_1775# vss a_1913_1909# vss sky130_fd_pr__nfet_01v8 ad=0.0997 pd=0.895 as=0.0693 ps=0.75 w=0.42 l=0.15
X154 vss a_2200_1841# a_2134_1909# vss sky130_fd_pr__nfet_01v8 ad=0.145 pd=1.11 as=0.0693 ps=0.75 w=0.42 l=0.15
X155 x2.x5[7].floating x2.x10.Y x2.x9.output_stack vdd sky130_fd_pr__pfet_01v8 ad=0.122 pd=1.42 as=0.101 ps=0.9 w=0.42 l=0.15
X156 x2.x5[7].floating x2.x10.Y x2.x9.output_stack vdd sky130_fd_pr__pfet_01v8 ad=0.122 pd=1.42 as=0.101 ps=0.9 w=0.42 l=0.15
X157 a_n6207_413# x8.X a_n6295_275# vss sky130_fd_pr__nfet_01v8 ad=0.0441 pd=0.63 as=0.122 ps=1.42 w=0.42 l=0.15
X158 x2.x10.Y x2.x10.A vdd vdd sky130_fd_pr__pfet_01v8_hvt ad=0.26 pd=2.52 as=0.26 ps=2.52 w=1 l=0.15
X159 vss x2.IN a_n6207_n797# vss sky130_fd_pr__nfet_01v8 ad=0.122 pd=1.42 as=0.0441 ps=0.63 w=0.42 l=0.15
X160 vdd a_210_798# x3.A0 vdd sky130_fd_pr__pfet_01v8_hvt ad=0.149 pd=1.33 as=0.26 ps=2.52 w=1 l=0.15
X161 vdd vdd a_2077_824# vdd sky130_fd_pr__pfet_01v8_hvt ad=0.109 pd=1.36 as=0.0662 ps=0.735 w=0.42 l=0.15
X162 x2.x5[7].floating x2.x10.Y x2.x9.output_stack vdd sky130_fd_pr__pfet_01v8 ad=0.122 pd=1.42 as=0.101 ps=0.9 w=0.42 l=0.15
X163 x4.x2.floating x4.x2.SW x4.x9.output_stack vss sky130_fd_pr__nfet_01v8 ad=0.122 pd=1.42 as=0.124 ps=1.43 w=0.42 l=0.15
X164 x4.x10.Y x4.x10.A vdd vdd sky130_fd_pr__pfet_01v8_hvt ad=0.26 pd=2.52 as=0.26 ps=2.52 w=1 l=0.15
X165 a_n6182_n3152# x2.IN a_n6270_n3290# vdd sky130_fd_pr__pfet_01v8_hvt ad=0.122 pd=1.42 as=0.122 ps=1.42 w=0.42 l=0.15
X166 vss x10.A a_n397_1077# vdd sky130_fd_pr__pfet_01v8_hvt ad=0.0693 pd=0.75 as=0.0651 ps=0.73 w=0.42 l=0.15
X167 x2.x9.output_stack x2.code[2] x2.x4[3].floating vss sky130_fd_pr__nfet_01v8 ad=0.0966 pd=0.88 as=0.122 ps=1.42 w=0.42 l=0.15
X168 x2.x3[1].floating x2.code[1] x2.x9.output_stack vss sky130_fd_pr__nfet_01v8 ad=0.122 pd=1.42 as=0.0966 ps=0.88 w=0.42 l=0.15
X169 a_n6135_n1625# x2.IN a_n6207_n1487# vss sky130_fd_pr__nfet_01v8 ad=0.122 pd=1.42 as=0.0441 ps=0.63 w=0.42 l=0.15
.ends

.subckt hgu_clk_sample set reset x2.x4.x7.SW x2.x4.code[2] x2.x4.code[1] x2.x1.code[2]
+ x2.x1.code[1] x2.x1.x2.SW x2.x2.code[2] x2.x2.code[1] x2.x3.code[2] x2.x3.code[1]
+ x2.x3.x2.SW x2.x1.x10.A x2.x3.x10.A sample_clk_b sample_clk clk x2.x2.x10.A x2.x4.x2.SW
+ x2.x4.x10.A x2.x2.x2.SW vdd vss
X0 a_11371_5456# x2.x1.IN a_11283_5456# vss sky130_fd_pr__nfet_01v8 ad=0.0441 pd=0.63 as=0.122 ps=1.42 w=0.42 l=0.15
X1 vss a_3106_6090# a_3041_6494# vss sky130_fd_pr__nfet_01v8 ad=0.0588 pd=0.7 as=0.066 ps=0.745 w=0.42 l=0.15
X2 x2.x4.x2.floating x2.x4.x2.SW x2.x4.x9.output_stack vss sky130_fd_pr__nfet_01v8 ad=0.122 pd=1.42 as=0.124 ps=1.43 w=0.42 l=0.15
X3 a_4687_7397# x3.A a_4599_7535# vdd sky130_fd_pr__pfet_01v8_hvt ad=0.122 pd=1.42 as=0.122 ps=1.42 w=0.42 l=0.15
X4 x2.x1.x5[7].floating x2.x1.x10.Y x2.x1.x9.output_stack vdd sky130_fd_pr__pfet_01v8 ad=0.122 pd=1.42 as=0.101 ps=0.9 w=0.42 l=0.15
X5 x7.A x2.x3.x9.output_stack a_4047_2819# vdd sky130_fd_pr__pfet_01v8_hvt ad=0.122 pd=1.42 as=0.0651 ps=0.73 w=0.42 l=0.15
X6 a_2325_6090# x1.x3.Y vdd vdd sky130_fd_pr__pfet_01v8_hvt ad=0.147 pd=1.23 as=0.0798 ps=0.8 w=0.42 l=0.15
X7 a_10112_1680# x2.x3.IN a_10024_1818# vdd sky130_fd_pr__pfet_01v8_hvt ad=0.122 pd=1.42 as=0.122 ps=1.42 w=0.42 l=0.15
X8 x2.x4.x9.output_stack x2.x4.x10.Y x2.x4.x5[7].floating vdd sky130_fd_pr__pfet_01v8 ad=0.101 pd=0.9 as=0.122 ps=1.42 w=0.42 l=0.15
X9 a_10472_6534# x2.x4.x9.output_stack x2.x1.IN vdd sky130_fd_pr__pfet_01v8_hvt ad=0.0651 pd=0.73 as=0.122 ps=1.42 w=0.42 l=0.15
X10 a_3340_6116# a_2932_6494# a_3106_6090# vdd sky130_fd_pr__pfet_01v8_hvt ad=0.0882 pd=1.05 as=0.123 ps=1.17 w=0.84 l=0.15
X11 a_10065_3897# x2.x3.IN a_9977_3897# vss sky130_fd_pr__nfet_01v8 ad=0.0441 pd=0.63 as=0.122 ps=1.42 w=0.42 l=0.15
X12 a_2325_6090# a_2151_6116# a_2465_6482# vss sky130_fd_pr__nfet_01v8 ad=0.0864 pd=0.91 as=0.101 ps=0.99 w=0.64 l=0.15
X13 a_11396_7121# x2.x1.IN a_11308_6983# vdd sky130_fd_pr__pfet_01v8_hvt ad=0.122 pd=1.42 as=0.122 ps=1.42 w=0.42 l=0.15
X14 x2.x1.x10.Y x2.x1.x10.A vdd vdd sky130_fd_pr__pfet_01v8_hvt ad=0.26 pd=2.52 as=0.26 ps=2.52 w=1 l=0.15
X15 x2.x4.x10.Y x2.x4.x10.A vss vss sky130_fd_pr__nfet_01v8 ad=0.169 pd=1.82 as=0.169 ps=1.82 w=0.65 l=0.15
X16 a_2151_6116# a_1870_6122# a_2058_6116# vdd sky130_fd_pr__pfet_01v8_hvt ad=0.0567 pd=0.69 as=0.0662 ps=0.735 w=0.42 l=0.15
X17 a_4734_5594# x3.A a_4662_5594# vss sky130_fd_pr__nfet_01v8 ad=0.122 pd=1.42 as=0.0441 ps=0.63 w=0.42 l=0.15
X18 x2.x2.x5[7].floating x2.x2.x10.Y x2.x2.x9.output_stack vdd sky130_fd_pr__pfet_01v8 ad=0.122 pd=1.42 as=0.101 ps=0.9 w=0.42 l=0.15
X19 vss a_2678_2626# sample_clk vss sky130_fd_pr__nfet_01v8 ad=0.13 pd=1.46 as=0.0693 ps=0.75 w=0.42 l=0.15
X20 a_16846_3483# x2.x2.IN a_16774_3483# vss sky130_fd_pr__nfet_01v8 ad=0.122 pd=1.42 as=0.0441 ps=0.63 w=0.42 l=0.15
X21 x2.x2.x6.SW x2.x4.x7.SW vdd vdd sky130_fd_pr__pfet_01v8_hvt ad=0.26 pd=2.52 as=0.26 ps=2.52 w=1 l=0.15
X22 vdd a_3106_6090# a_3813_6132# vdd sky130_fd_pr__pfet_01v8_hvt ad=0.149 pd=1.33 as=0.166 ps=1.8 w=0.64 l=0.15
X23 vdd x7.Y x3.Y vdd sky130_fd_pr__pfet_01v8_hvt ad=0.26 pd=2.52 as=0.135 ps=1.27 w=1 l=0.15
X24 x2.x3.x9.output_stack x2.x3.code[2] x2.x3.x4[3].floating vss sky130_fd_pr__nfet_01v8 ad=0.0966 pd=0.88 as=0.122 ps=1.42 w=0.42 l=0.15
X25 vdd a_2678_2626# sample_clk vdd sky130_fd_pr__pfet_01v8 ad=0.391 pd=3.14 as=0.208 ps=1.59 w=1.26 l=0.15
X26 a_17181_6534# x2.x1.x9.output_stack x2.x2.IN vdd sky130_fd_pr__pfet_01v8_hvt ad=0.0651 pd=0.73 as=0.122 ps=1.42 w=0.42 l=0.15
X27 x3.A a_3813_6132# vdd vdd sky130_fd_pr__pfet_01v8_hvt ad=0.26 pd=2.52 as=0.149 ps=1.33 w=1 l=0.15
X28 x2.x2.x7.floating x2.x4.x7.SW x2.x2.x9.output_stack vss sky130_fd_pr__nfet_01v8 ad=0.122 pd=1.42 as=0.122 ps=1.42 w=0.42 l=0.15
X29 x2.x1.x9.output_stack x2.x1.x6.SW x2.x1.x6.floating vdd sky130_fd_pr__pfet_01v8 ad=0.122 pd=1.42 as=0.122 ps=1.42 w=0.42 l=0.15
X30 a_10472_6193# x2.x1.IN vdd vss sky130_fd_pr__nfet_01v8 ad=0.13 pd=1.46 as=0.0693 ps=0.75 w=0.42 l=0.15
X31 vdd x2.x3.x10.A x2.x3.x10.Y vdd sky130_fd_pr__pfet_01v8_hvt ad=0.26 pd=2.52 as=0.26 ps=2.52 w=1 l=0.15
X32 vdd a_2678_2006# sample_clk_b vdd sky130_fd_pr__pfet_01v8 ad=0.208 pd=1.59 as=0.391 ps=3.14 w=1.26 l=0.15
X33 a_4662_5180# x3.A a_4574_5180# vss sky130_fd_pr__nfet_01v8 ad=0.0441 pd=0.63 as=0.122 ps=1.42 w=0.42 l=0.15
X34 vss x2.x1.IN a_11371_5180# vss sky130_fd_pr__nfet_01v8 ad=0.122 pd=1.42 as=0.0441 ps=0.63 w=0.42 l=0.15
X35 a_16846_3759# x2.x2.IN a_16774_3759# vss sky130_fd_pr__nfet_01v8 ad=0.122 pd=1.42 as=0.0441 ps=0.63 w=0.42 l=0.15
X36 a_4047_3022# x7.A vdd vss sky130_fd_pr__nfet_01v8 ad=0.0651 pd=0.73 as=0.0693 ps=0.75 w=0.42 l=0.15
X37 a_11371_5870# x2.x1.IN a_11283_5732# vss sky130_fd_pr__nfet_01v8 ad=0.0441 pd=0.63 as=0.122 ps=1.42 w=0.42 l=0.15
X38 x2.x1.x9.output_stack x2.x1.x10.Y x2.x1.x5[7].floating vdd sky130_fd_pr__pfet_01v8 ad=0.101 pd=0.9 as=0.122 ps=1.42 w=0.42 l=0.15
X39 a_16774_4173# x2.x2.IN vss vss sky130_fd_pr__nfet_01v8 ad=0.0441 pd=0.63 as=0.122 ps=1.42 w=0.42 l=0.15
X40 x2.x3.x5[7].floating x2.x3.x10.Y x2.x3.x9.output_stack vdd sky130_fd_pr__pfet_01v8 ad=0.122 pd=1.42 as=0.101 ps=0.9 w=0.42 l=0.15
X41 x2.x4.x9.output_stack x2.x4.code[2] x2.x4.x4[3].floating vss sky130_fd_pr__nfet_01v8 ad=0.0966 pd=0.88 as=0.122 ps=1.42 w=0.42 l=0.15
X42 a_4662_5456# x3.A a_4574_5456# vss sky130_fd_pr__nfet_01v8 ad=0.0441 pd=0.63 as=0.122 ps=1.42 w=0.42 l=0.15
X43 a_11443_5318# x2.x1.IN a_11371_5456# vss sky130_fd_pr__nfet_01v8 ad=0.122 pd=1.42 as=0.0441 ps=0.63 w=0.42 l=0.15
X44 x2.x1.x5[7].floating x2.x1.x10.Y x2.x1.x9.output_stack vdd sky130_fd_pr__pfet_01v8 ad=0.122 pd=1.42 as=0.101 ps=0.9 w=0.42 l=0.15
X45 a_16774_3345# x2.x2.IN a_16686_3345# vss sky130_fd_pr__nfet_01v8 ad=0.0441 pd=0.63 as=0.122 ps=1.42 w=0.42 l=0.15
X46 x2.x3.x9.output_stack x2.x3.x10.Y x2.x3.x5[7].floating vdd sky130_fd_pr__pfet_01v8 ad=0.101 pd=0.9 as=0.122 ps=1.42 w=0.42 l=0.15
X47 x2.x4.x5[7].floating x2.x4.x10.Y x2.x4.x9.output_stack vdd sky130_fd_pr__pfet_01v8 ad=0.122 pd=1.42 as=0.101 ps=0.9 w=0.42 l=0.15
X48 a_17181_6534# x2.x2.IN vss vdd sky130_fd_pr__pfet_01v8_hvt ad=0.13 pd=1.46 as=0.0693 ps=0.75 w=0.42 l=0.15
X49 x2.x1.x9.output_stack x2.x4.x7.SW x2.x1.x7.floating vss sky130_fd_pr__nfet_01v8 ad=0.122 pd=1.42 as=0.122 ps=1.42 w=0.42 l=0.15
X50 vdd a_3056_2150# a_2678_2006# vdd sky130_fd_pr__pfet_01v8 ad=0.365 pd=3.1 as=0.365 ps=3.1 w=1.26 l=0.15
X51 x2.x3.x5[7].floating x2.x3.x10.Y x2.x3.x9.output_stack vdd sky130_fd_pr__pfet_01v8 ad=0.122 pd=1.42 as=0.101 ps=0.9 w=0.42 l=0.15
X52 x2.x1.x9.output_stack x2.x1.x10.Y x2.x1.x5[7].floating vdd sky130_fd_pr__pfet_01v8 ad=0.101 pd=0.9 as=0.122 ps=1.42 w=0.42 l=0.15
X53 x1.x4.Y reset vdd vdd sky130_fd_pr__pfet_01v8_hvt ad=0.26 pd=2.52 as=0.26 ps=2.52 w=1 l=0.15
X54 a_10137_3759# x2.x3.IN a_10065_3897# vss sky130_fd_pr__nfet_01v8 ad=0.122 pd=1.42 as=0.0441 ps=0.63 w=0.42 l=0.15
X55 vss a_2678_2006# sample_clk_b vss sky130_fd_pr__nfet_01v8 ad=0.0693 pd=0.75 as=0.13 ps=1.46 w=0.42 l=0.15
X56 x2.x2.x9.output_stack x2.x2.x10.Y x2.x2.x5[7].floating vdd sky130_fd_pr__pfet_01v8 ad=0.101 pd=0.9 as=0.122 ps=1.42 w=0.42 l=0.15
X57 x2.x1.x5[7].floating x2.x1.x10.Y x2.x1.x9.output_stack vdd sky130_fd_pr__pfet_01v8 ad=0.122 pd=1.42 as=0.101 ps=0.9 w=0.42 l=0.15
X58 a_11371_6146# x2.x1.IN a_11283_6008# vss sky130_fd_pr__nfet_01v8 ad=0.0441 pd=0.63 as=0.122 ps=1.42 w=0.42 l=0.15
X59 a_4687_7121# x3.A a_4599_6983# vdd sky130_fd_pr__pfet_01v8_hvt ad=0.122 pd=1.42 as=0.122 ps=1.42 w=0.42 l=0.15
X60 x2.x2.x4[3].floating x2.x2.code[2] x2.x2.x9.output_stack vss sky130_fd_pr__nfet_01v8 ad=0.122 pd=1.42 as=0.0966 ps=0.88 w=0.42 l=0.15
X61 vdd x2.x4.x7.SW x2.x1.x6.SW vdd sky130_fd_pr__pfet_01v8_hvt ad=0.26 pd=2.52 as=0.26 ps=2.52 w=1 l=0.15
X62 a_11371_5318# x2.x1.IN a_11283_5180# vss sky130_fd_pr__nfet_01v8 ad=0.0441 pd=0.63 as=0.122 ps=1.42 w=0.42 l=0.15
X63 a_10112_2232# x2.x3.IN a_10024_2094# vdd sky130_fd_pr__pfet_01v8_hvt ad=0.122 pd=1.42 as=0.122 ps=1.42 w=0.42 l=0.15
X64 a_4047_2819# x7.A vss vdd sky130_fd_pr__pfet_01v8_hvt ad=0.0651 pd=0.73 as=0.0693 ps=0.75 w=0.42 l=0.15
X65 x2.x2.x9.output_stack x2.x2.code[2] x2.x2.x4[3].floating vss sky130_fd_pr__nfet_01v8 ad=0.0966 pd=0.88 as=0.122 ps=1.42 w=0.42 l=0.15
X66 a_2058_6116# x1.x2.D vss vss sky130_fd_pr__nfet_01v8 ad=0.066 pd=0.745 as=0.109 ps=1.36 w=0.42 l=0.15
X67 a_10065_3483# x2.x3.IN a_9977_3345# vss sky130_fd_pr__nfet_01v8 ad=0.0441 pd=0.63 as=0.122 ps=1.42 w=0.42 l=0.15
X68 vss clk a_1704_6122# vss sky130_fd_pr__nfet_01v8 ad=0.0567 pd=0.69 as=0.109 ps=1.36 w=0.42 l=0.15
X69 a_10472_6193# x2.x4.x9.output_stack vss vss sky130_fd_pr__nfet_01v8 ad=0.122 pd=1.42 as=0.122 ps=1.42 w=0.42 l=0.15
X70 x2.x1.x9.output_stack x2.x1.code[1] x2.x1.x3[1].floating vss sky130_fd_pr__nfet_01v8 ad=0.0966 pd=0.88 as=0.122 ps=1.42 w=0.42 l=0.15
X71 x2.x2.x6.floating x2.x2.x6.SW x2.x2.x9.output_stack vdd sky130_fd_pr__pfet_01v8 ad=0.122 pd=1.42 as=0.122 ps=1.42 w=0.42 l=0.15
X72 vss x3.A a_4662_5180# vss sky130_fd_pr__nfet_01v8 ad=0.122 pd=1.42 as=0.0441 ps=0.63 w=0.42 l=0.15
X73 a_4662_5870# x3.A a_4574_5732# vss sky130_fd_pr__nfet_01v8 ad=0.0441 pd=0.63 as=0.122 ps=1.42 w=0.42 l=0.15
X74 a_11443_5870# x2.x1.IN a_11371_5870# vss sky130_fd_pr__nfet_01v8 ad=0.122 pd=1.42 as=0.0441 ps=0.63 w=0.42 l=0.15
X75 a_10065_3759# x2.x3.IN a_9977_3621# vss sky130_fd_pr__nfet_01v8 ad=0.0441 pd=0.63 as=0.122 ps=1.42 w=0.42 l=0.15
X76 x2.x2.x4[3].floating x2.x2.code[2] x2.x2.x9.output_stack vss sky130_fd_pr__nfet_01v8 ad=0.122 pd=1.42 as=0.0966 ps=0.88 w=0.42 l=0.15
X77 vdd a_3056_2936# a_2678_2626# vdd sky130_fd_pr__pfet_01v8 ad=0.365 pd=3.1 as=0.365 ps=3.1 w=1.26 l=0.15
X78 vss a_2325_6090# a_2259_6494# vss sky130_fd_pr__nfet_01v8 ad=0.084 pd=0.82 as=0.0671 ps=0.75 w=0.42 l=0.15
X79 a_3106_6090# x1.x3.Y vdd vdd sky130_fd_pr__pfet_01v8_hvt ad=0.123 pd=1.17 as=0.0819 ps=0.81 w=0.42 l=0.15
X80 x2.x4.x9.output_stack x2.x4.x10.Y x2.x4.x5[7].floating vdd sky130_fd_pr__pfet_01v8 ad=0.101 pd=0.9 as=0.122 ps=1.42 w=0.42 l=0.15
X81 a_16846_4035# x2.x2.IN a_16774_4173# vss sky130_fd_pr__nfet_01v8 ad=0.122 pd=1.42 as=0.0441 ps=0.63 w=0.42 l=0.15
X82 x2.x4.x5[7].floating x2.x4.x10.Y x2.x4.x9.output_stack vdd sky130_fd_pr__pfet_01v8 ad=0.122 pd=1.42 as=0.101 ps=0.9 w=0.42 l=0.15
X83 a_17181_6193# x2.x1.x9.output_stack vss vss sky130_fd_pr__nfet_01v8 ad=0.122 pd=1.42 as=0.122 ps=1.42 w=0.42 l=0.15