* NGSPICE file created from hgu_sarlogic_flat.ext - technology: sky130A

.subckt hgu_sarlogic_flat ready ext_clk sample_clk sample_clk_b sar_clk sel_bit[0]
+ sel_bit[1] sar_result[1] sar_result[2] sar_result[3] sar_result[6] sar_result[0]
+ sample_delay_cap_ctrl_code[2] sample_delay_cap_ctrl_code[1] sample_delay_cap_ctrl_code[0]
+ sample_delay_cap_ctrl_code[6] sample_delay_cap_ctrl_code[5] sample_delay_cap_ctrl_code[4]
+ sample_delay_cap_ctrl_code[3] sample_delay_cap_ctrl_code[11] sample_delay_cap_ctrl_code[15]
+ async_setb_delay_cap_ctrl_code[2] async_setb_delay_cap_ctrl_code[1] async_setb_delay_cap_ctrl_code[0]
+ async_resetb_delay_cap_ctrl_code[0] async_resetb_delay_cap_ctrl_code[1] async_resetb_delay_cap_ctrl_code[2]
+ async_setb_delay_cap_ctrl_code[3] async_delay_offset retimer_eob_delay_offset retimer_delay_code[2]
+ retimer_delay_code[1] vss_sw[7] vss_sw[6] vss_sw[5] vss_sw[4] vss_sw[3] vss_sw[2]
+ vss_sw[1] vdd_sw[7] vdd_sw[6] vdd_sw[5] vdd_sw[4] vdd_sw[3] vdd_sw[2] vdd_sw[1]
+ vss_sw_b[7] vss_sw_b[6] vss_sw_b[5] vss_sw_b[4] vdd_sw_b[1] vdd_sw_b[2] vdd_sw_b[3]
+ vdd_sw_b[4] vdd_sw_b[6] vdd_sw_b[7] sample_delay_cap_ctrl_code[9] sample_delay_cap_ctrl_code[14]
+ sample_delay_cap_ctrl_code[13] sample_delay_cap_ctrl_code[12] sample_delay_cap_ctrl_code[10]
+ comp_result retimer_delay_code[0] retimer_delay_code[3] vdd_sw_b[5] sar_result[4]
+ sar_result[5] sar_result[7] async_resetb_delay_cap_ctrl_code[3] vss_sw_b[1] vss_sw_b[2]
+ vss_sw_b[3] sample_delay_cap_ctrl_code[8] sample_delay_cap_ctrl_code[7] sample_delay_offset
+ VDD VSS
X0 a_9687_n656# a_9222_n964# VDD VDD sky130_fd_pr__pfet_01v8_hvt ad=0.174 pd=1.41 as=0.225 ps=1.38 w=0.84 l=0.15
X1 VSS a_13898_892# x4.x9.A1 VSS sky130_fd_pr__nfet_01v8 ad=0.0878 pd=0.92 as=0.0878 ps=0.92 w=0.65 l=0.15
X2 a_22178_5989# a_21713_5681# VDD VDD sky130_fd_pr__pfet_01v8_hvt ad=0.174 pd=1.41 as=0.225 ps=1.38 w=0.84 l=0.15
X3 x4.x2.X a_9514_892# VDD VDD sky130_fd_pr__pfet_01v8_hvt ad=0.135 pd=1.27 as=0.135 ps=1.27 w=1 l=0.15
X4 a_28443_2504# a_28162_2510# a_28350_2504# VDD sky130_fd_pr__pfet_01v8_hvt ad=0.0567 pd=0.69 as=0.0662 ps=0.735 w=0.42 l=0.15
X5 VDD VDD a_11141_n1653# VDD sky130_fd_pr__pfet_01v8_hvt ad=0.0956 pd=0.875 as=0.132 ps=1.22 w=0.42 l=0.15
X6 a_15829_n1475# a_15925_n1653# VSS VSS sky130_fd_pr__nfet_01v8 ad=0.109 pd=1.36 as=0.097 ps=0.975 w=0.42 l=0.15
X7 a_21957_5989# a_21539_6073# a_21713_5681# VDD sky130_fd_pr__pfet_01v8_hvt ad=0.113 pd=1.11 as=0.147 ps=1.23 w=0.84 l=0.15
X8 a_9990_n670# x4.x2.X VDD VDD sky130_fd_pr__pfet_01v8_hvt ad=0.132 pd=1.22 as=0.0956 ps=0.875 w=0.42 l=0.15
X9 a_13898_892# x4.x30.A VSS VSS sky130_fd_pr__nfet_01v8 ad=0.0878 pd=0.92 as=0.169 ps=1.82 w=0.65 l=0.15
X10 VSS a_27006_1838# a_26941_1864# VSS sky130_fd_pr__nfet_01v8 ad=0.0588 pd=0.7 as=0.066 ps=0.745 w=0.42 l=0.15
X11 VDD a_21950_n670# a_21875_n572# VDD sky130_fd_pr__pfet_01v8_hvt ad=0.0956 pd=0.875 as=0.0787 ps=0.795 w=0.42 l=0.15
X12 VSS a_27006_3758# a_26941_4162# VSS sky130_fd_pr__nfet_01v8 ad=0.0588 pd=0.7 as=0.066 ps=0.745 w=0.42 l=0.15
X13 a_15944_n938# a_15778_n938# VSS VSS sky130_fd_pr__nfet_01v8 ad=0.109 pd=1.36 as=0.0567 ps=0.69 w=0.42 l=0.15
X14 a_16455_4992# a_17010_4992# a_16968_5300# VDD sky130_fd_pr__pfet_01v8_hvt ad=0.123 pd=1.17 as=0.0882 ps=1.05 w=0.84 l=0.15
X15 x3.x5.X a_11801_6580# VSS VSS sky130_fd_pr__nfet_01v8 ad=0.0878 pd=0.92 as=0.0878 ps=0.92 w=0.65 l=0.15
X16 a_19700_3246# x4.D[3] VSS VSS sky130_fd_pr__nfet_01v8 ad=0.109 pd=1.36 as=0.0567 ps=0.69 w=0.42 l=0.15
X17 VDD a_12261_8772# a_11883_8462# VDD sky130_fd_pr__pfet_01v8 ad=0.365 pd=3.1 as=0.365 ps=3.1 w=1.26 l=0.15
X18 vdd_sw_b[1] a_24342_n670# VSS VSS sky130_fd_pr__nfet_01v8 ad=0.169 pd=1.82 as=0.097 ps=0.975 w=0.65 l=0.15
X19 a_10549_8788# a_10817_8528# a_10763_8554# VDD sky130_fd_pr__pfet_01v8_hvt ad=0.147 pd=1.23 as=0.113 ps=1.11 w=0.84 l=0.15
X20 a_26737_2826# a_26225_2478# VSS VSS sky130_fd_pr__nfet_01v8 ad=0.0935 pd=0.965 as=0.166 ps=1.8 w=0.64 l=0.15
X21 VDD retimer_eob_delay_offset x5.x2.x6.SW VDD sky130_fd_pr__pfet_01v8_hvt ad=0.26 pd=2.52 as=0.26 ps=2.52 w=1 l=0.15
X22 a_15433_4145# x3.x77.Y VSS VSS sky130_fd_pr__nfet_01v8 ad=0.12 pd=1.08 as=0.0588 ps=0.7 w=0.42 l=0.15
X23 x2.x2.x3.IN x2.x2.x2.x9.output_stack a_19961_8655# VDD sky130_fd_pr__pfet_01v8_hvt ad=0.122 pd=1.42 as=0.0651 ps=0.73 w=0.42 l=0.15
X24 a_30402_5732# x5.x2.x9.output_stack x5.x3.A VSS sky130_fd_pr__nfet_01v8 ad=0.0651 pd=0.73 as=0.122 ps=1.42 w=0.42 l=0.15
X25 a_14860_n1443# a_14387_n1353# a_15104_n1627# VSS sky130_fd_pr__nfet_01v8 ad=0.0675 pd=0.735 as=0.0671 ps=0.75 w=0.36 l=0.15
X26 x3.x4.X a_11974_5018# VDD VDD sky130_fd_pr__pfet_01v8_hvt ad=0.135 pd=1.27 as=0.135 ps=1.27 w=1 l=0.15
X27 a_28350_3144# x4.D[3] VDD VDD sky130_fd_pr__pfet_01v8_hvt ad=0.0662 pd=0.735 as=0.109 ps=1.36 w=0.42 l=0.15
X28 a_15433_4145# a_14830_4119# a_15317_4119# VSS sky130_fd_pr__nfet_01v8 ad=0.166 pd=1.8 as=0.0864 ps=0.91 w=0.64 l=0.15
X29 x1.x4.x9.output_stack async_resetb_delay_cap_ctrl_code[2] x1.x4.x4[3].floating VSS sky130_fd_pr__nfet_01v8 ad=0.0966 pd=0.88 as=0.122 ps=1.42 w=0.42 l=0.15
X30 a_15334_3554# a_14375_3272# VDD VDD sky130_fd_pr__pfet_01v8_hvt ad=0.113 pd=1.11 as=0.225 ps=1.38 w=0.84 l=0.15
X31 a_11075_11958# a_10909_11958# VSS VSS sky130_fd_pr__nfet_01v8 ad=0.109 pd=1.36 as=0.0567 ps=0.69 w=0.42 l=0.15
X32 a_23484_n572# a_23120_n938# a_23400_n572# VDD sky130_fd_pr__pfet_01v8_hvt ad=0.0945 pd=0.87 as=0.0567 ps=0.69 w=0.42 l=0.15
X33 a_26051_2230# a_25770_1864# a_25958_1864# VDD sky130_fd_pr__pfet_01v8_hvt ad=0.0567 pd=0.69 as=0.0662 ps=0.735 w=0.42 l=0.15
X34 vdd_sw_b[6] a_12382_n670# VSS VSS sky130_fd_pr__nfet_01v8 ad=0.169 pd=1.82 as=0.097 ps=0.975 w=0.65 l=0.15
X35 VDD a_16928_4119# a_16838_4511# VDD sky130_fd_pr__pfet_01v8_hvt ad=0.0798 pd=0.8 as=0.0945 ps=0.87 w=0.42 l=0.15
X36 a_14250_n656# a_13832_n572# a_14006_n964# VDD sky130_fd_pr__pfet_01v8_hvt ad=0.113 pd=1.11 as=0.147 ps=1.23 w=0.84 l=0.15
X37 a_9938_n938# a_8768_n938# a_9831_n572# VSS sky130_fd_pr__nfet_01v8 ad=0.066 pd=0.745 as=0.0486 ps=0.63 w=0.36 l=0.15
X38 a_16398_n964# x4.x2.X VDD VDD sky130_fd_pr__pfet_01v8_hvt ad=0.147 pd=1.23 as=0.0798 ps=0.8 w=0.42 l=0.15
X39 a_22290_n250# a_22036_77# VSS VSS sky130_fd_pr__nfet_01v8 ad=0.0693 pd=0.75 as=0.145 ps=1.11 w=0.42 l=0.15
X40 VSS a_9514_892# x4.x2.X VSS sky130_fd_pr__nfet_01v8 ad=0.0878 pd=0.92 as=0.0878 ps=0.92 w=0.65 l=0.15
X41 a_10004_8554# a_9804_8920# VDD VDD sky130_fd_pr__pfet_01v8_hvt ad=0.0882 pd=1.05 as=0.218 ps=2.2 w=0.84 l=0.15
X42 a_21752_5300# a_21552_5018# VDD VDD sky130_fd_pr__pfet_01v8_hvt ad=0.0882 pd=1.05 as=0.218 ps=2.2 w=0.84 l=0.15
X43 a_26051_9043# x2.x2.x2.IN a_25979_9181# VSS sky130_fd_pr__nfet_01v8 ad=0.122 pd=1.42 as=0.0441 ps=0.63 w=0.42 l=0.15
X44 a_21538_4511# a_21257_4145# a_21445_4145# VDD sky130_fd_pr__pfet_01v8_hvt ad=0.0567 pd=0.69 as=0.0662 ps=0.735 w=0.42 l=0.15
X45 x3.x4.X a_11974_5018# VSS VSS sky130_fd_pr__nfet_01v8 ad=0.0878 pd=0.92 as=0.0878 ps=0.92 w=0.65 l=0.15
X46 a_19053_4145# x3.x7.X VSS VSS sky130_fd_pr__nfet_01v8 ad=0.066 pd=0.745 as=0.109 ps=1.36 w=0.42 l=0.15
X47 a_21512_n1261# a_20709_n1653# VDD VDD sky130_fd_pr__pfet_01v8_hvt ad=0.0787 pd=0.795 as=0.0956 ps=0.875 w=0.42 l=0.15
X48 VDD a_23003_n98# x4.x18.X VDD sky130_fd_pr__pfet_01v8_hvt ad=0.158 pd=1.39 as=0.26 ps=2.52 w=1 l=0.15
X49 a_14917_4992# x3.x5.X VSS VSS sky130_fd_pr__nfet_01v8 ad=0.109 pd=1.36 as=0.0567 ps=0.69 w=0.42 l=0.15
X50 a_8956_n938# x4.x5.D VSS VSS sky130_fd_pr__nfet_01v8 ad=0.066 pd=0.745 as=0.109 ps=1.36 w=0.42 l=0.15
X51 VDD a_10957_7987# x1.x3.X VDD sky130_fd_pr__pfet_01v8_hvt ad=0.158 pd=1.39 as=0.26 ps=2.52 w=1 l=0.15
X52 VSS VDD a_20041_5018# VSS sky130_fd_pr__nfet_01v8 ad=0.084 pd=0.82 as=0.101 ps=0.99 w=0.42 l=0.15
X53 a_11524_n572# a_11160_n938# a_11440_n572# VDD sky130_fd_pr__pfet_01v8_hvt ad=0.0945 pd=0.87 as=0.0567 ps=0.69 w=0.42 l=0.15
X54 a_26365_2870# VDD VSS VSS sky130_fd_pr__nfet_01v8 ad=0.101 pd=0.99 as=0.084 ps=0.82 w=0.42 l=0.15
X55 VSS x3.D[0] a_18699_4145# VSS sky130_fd_pr__nfet_01v8 ad=0.0567 pd=0.69 as=0.109 ps=1.36 w=0.42 l=0.15
X56 VDD x5.x3.X a_27996_3790# VDD sky130_fd_pr__pfet_01v8_hvt ad=0.0864 pd=0.91 as=0.166 ps=1.8 w=0.64 l=0.15
X57 a_13577_n250# x4.x11.S VSS VSS sky130_fd_pr__nfet_01v8 ad=0.0693 pd=0.75 as=0.113 ps=1.04 w=0.42 l=0.15
X58 a_18752_4992# a_18847_4992# VDD VDD sky130_fd_pr__pfet_01v8_hvt ad=0.166 pd=1.8 as=0.149 ps=1.33 w=0.64 l=0.15
X59 a_23818_n656# a_23400_n572# a_23574_n964# VDD sky130_fd_pr__pfet_01v8_hvt ad=0.113 pd=1.11 as=0.147 ps=1.23 w=0.84 l=0.15
X60 VSS a_15317_4119# a_16024_4145# VSS sky130_fd_pr__nfet_01v8 ad=0.097 pd=0.975 as=0.109 ps=1.36 w=0.42 l=0.15
X61 x1.x10.Y x1.x10.A VSS VSS sky130_fd_pr__nfet_01v8 ad=0.169 pd=1.82 as=0.169 ps=1.82 w=0.65 l=0.15
X62 a_19159_3272# x3.x4.X VSS VSS sky130_fd_pr__nfet_01v8 ad=0.109 pd=1.36 as=0.097 ps=0.975 w=0.42 l=0.15
X63 x5.x1[4].Q_N a_27006_2478# VDD VDD sky130_fd_pr__pfet_01v8_hvt ad=0.26 pd=2.52 as=0.154 ps=1.34 w=1 l=0.15
X64 a_24664_5133# x5.eob a_24592_5133# VSS sky130_fd_pr__nfet_01v8 ad=0.122 pd=1.42 as=0.0441 ps=0.63 w=0.42 l=0.15
X65 a_27240_2146# a_26832_1864# a_27006_1838# VDD sky130_fd_pr__pfet_01v8_hvt ad=0.0882 pd=1.05 as=0.123 ps=1.17 w=0.84 l=0.15
X66 a_18934_n938# x4.x2.X VSS VSS sky130_fd_pr__nfet_01v8 ad=0.0974 pd=0.97 as=0.0882 ps=0.84 w=0.42 l=0.15
X67 a_9552_n1261# a_8749_n1653# VDD VDD sky130_fd_pr__pfet_01v8_hvt ad=0.0787 pd=0.795 as=0.0956 ps=0.875 w=0.42 l=0.15
X68 a_22036_n1443# a_21563_n1353# a_22280_n1627# VSS sky130_fd_pr__nfet_01v8 ad=0.0675 pd=0.735 as=0.0671 ps=0.75 w=0.36 l=0.15
X69 a_26386_12029# x2.x2.x1.x9.output_stack x2.x2.x2.IN VSS sky130_fd_pr__nfet_01v8 ad=0.0651 pd=0.73 as=0.122 ps=1.42 w=0.42 l=0.15
X70 a_3051_11231# ready a_2979_11231# VSS sky130_fd_pr__nfet_01v8 ad=0.122 pd=1.42 as=0.0441 ps=0.63 w=0.42 l=0.15
X71 a_19636_5384# a_18847_4992# VDD VDD sky130_fd_pr__pfet_01v8_hvt ad=0.0924 pd=0.86 as=0.0819 ps=0.81 w=0.42 l=0.15
X72 VSS a_13898_892# x4.x9.A1 VSS sky130_fd_pr__nfet_01v8 ad=0.0878 pd=0.92 as=0.0878 ps=0.92 w=0.65 l=0.15
X73 a_10332_77# VSS a_10332_n250# VSS sky130_fd_pr__nfet_01v8 ad=0.0997 pd=0.895 as=0.0693 ps=0.75 w=0.42 l=0.15
X74 a_18336_n938# a_18170_n938# VDD VDD sky130_fd_pr__pfet_01v8_hvt ad=0.166 pd=1.8 as=0.0864 ps=0.91 w=0.64 l=0.15
X75 a_19321_5681# a_19147_6073# a_19461_5707# VSS sky130_fd_pr__nfet_01v8 ad=0.0864 pd=0.91 as=0.101 ps=0.99 w=0.64 l=0.15
X76 a_19838_5384# a_19701_4992# a_19402_4992# VDD sky130_fd_pr__pfet_01v8_hvt ad=0.174 pd=1.41 as=0.0567 ps=0.69 w=0.42 l=0.15
X77 a_27122_3144# VDD VSS VSS sky130_fd_pr__nfet_01v8 ad=0.12 pd=1.08 as=0.0588 ps=0.7 w=0.42 l=0.15
X78 VDD a_27006_3758# a_27713_3800# VDD sky130_fd_pr__pfet_01v8_hvt ad=0.149 pd=1.33 as=0.166 ps=1.8 w=0.64 l=0.15
X79 a_21852_4145# x3.x39.Q_N VSS VSS sky130_fd_pr__nfet_01v8 ad=0.101 pd=0.99 as=0.084 ps=0.82 w=0.42 l=0.15
X80 VDD a_18317_n1653# vss_sw_b[3] VDD sky130_fd_pr__pfet_01v8_hvt ad=0.154 pd=1.34 as=0.26 ps=2.52 w=1 l=0.15
X81 a_27122_3144# a_26519_3118# a_27006_3118# VSS sky130_fd_pr__nfet_01v8 ad=0.166 pd=1.8 as=0.0864 ps=0.91 w=0.64 l=0.15
X82 a_23120_n938# a_22954_n938# VDD VDD sky130_fd_pr__pfet_01v8_hvt ad=0.166 pd=1.8 as=0.0864 ps=0.91 w=0.64 l=0.15
X83 x3.x4.X a_11974_5018# VSS VSS sky130_fd_pr__nfet_01v8 ad=0.0878 pd=0.92 as=0.0878 ps=0.92 w=0.65 l=0.15
X84 a_23145_77# x4.x20.S VDD VDD sky130_fd_pr__pfet_01v8_hvt ad=0.0767 pd=0.785 as=0.158 ps=1.39 w=0.42 l=0.15
X85 a_15335_n250# x4.x9.A1 a_15114_77# VSS sky130_fd_pr__nfet_01v8 ad=0.0693 pd=0.75 as=0.0997 ps=0.895 w=0.42 l=0.15
X86 a_22224_4145# a_21712_4119# VSS VSS sky130_fd_pr__nfet_01v8 ad=0.0935 pd=0.965 as=0.166 ps=1.8 w=0.64 l=0.15
X87 a_12942_3554# a_11983_3272# VDD VDD sky130_fd_pr__pfet_01v8_hvt ad=0.113 pd=1.11 as=0.225 ps=1.38 w=0.84 l=0.15
X88 a_19255_5707# a_18866_5707# a_19147_6073# VSS sky130_fd_pr__nfet_01v8 ad=0.0671 pd=0.75 as=0.0684 ps=0.74 w=0.36 l=0.15
X89 x4.x9.A1 a_13898_892# VDD VDD sky130_fd_pr__pfet_01v8_hvt ad=0.135 pd=1.27 as=0.135 ps=1.27 w=1 l=0.15
X90 a_2979_9193# sar_clk a_2891_9055# VSS sky130_fd_pr__nfet_01v8 ad=0.0441 pd=0.63 as=0.122 ps=1.42 w=0.42 l=0.15
X91 a_21768_n1653# a_22036_n1443# a_21982_n1345# VDD sky130_fd_pr__pfet_01v8_hvt ad=0.147 pd=1.23 as=0.113 ps=1.11 w=0.84 l=0.15
X92 VSS VDD a_11263_8932# VSS sky130_fd_pr__nfet_01v8 ad=0.109 pd=1.36 as=0.066 ps=0.745 w=0.42 l=0.15
X93 a_21713_5681# VDD VDD VDD sky130_fd_pr__pfet_01v8_hvt ad=0.147 pd=1.23 as=0.0798 ps=0.8 w=0.42 l=0.15
X94 VSS x4.x30.A a_13898_892# VSS sky130_fd_pr__nfet_01v8 ad=0.0878 pd=0.92 as=0.0878 ps=0.92 w=0.65 l=0.15
X95 a_9514_892# x4.x3.X VDD VDD sky130_fd_pr__pfet_01v8_hvt ad=0.135 pd=1.27 as=0.26 ps=2.52 w=1 l=0.15
X96 a_23366_n250# VSS a_23003_n98# VSS sky130_fd_pr__nfet_01v8 ad=0.0693 pd=0.75 as=0.0997 ps=0.895 w=0.42 l=0.15
X97 a_22231_3272# a_22091_3546# a_21793_3246# VSS sky130_fd_pr__nfet_01v8 ad=0.0935 pd=0.965 as=0.0711 ps=0.755 w=0.36 l=0.15
X98 a_12545_11952# a_12137_12330# a_12311_11926# VDD sky130_fd_pr__pfet_01v8_hvt ad=0.0882 pd=1.05 as=0.123 ps=1.17 w=0.84 l=0.15
X99 a_16661_4145# x3.x7.X VSS VSS sky130_fd_pr__nfet_01v8 ad=0.066 pd=0.745 as=0.109 ps=1.36 w=0.42 l=0.15
X100 a_15042_77# a_14860_77# VDD VDD sky130_fd_pr__pfet_01v8_hvt ad=0.0441 pd=0.63 as=0.0693 ps=0.75 w=0.42 l=0.15
X101 x1.x4.x4[3].floating async_resetb_delay_cap_ctrl_code[2] x1.x4.x9.output_stack VSS sky130_fd_pr__nfet_01v8 ad=0.122 pd=1.42 as=0.0966 ps=0.88 w=0.42 l=0.15
X102 a_23308_n938# x4.D[1] VSS VSS sky130_fd_pr__nfet_01v8 ad=0.066 pd=0.745 as=0.109 ps=1.36 w=0.42 l=0.15
X103 x3.x4.A a_11360_5018# VSS VSS sky130_fd_pr__nfet_01v8 ad=0.0878 pd=0.92 as=0.0878 ps=0.92 w=0.65 l=0.15
X104 a_10272_7835# x5.eob VSS VSS sky130_fd_pr__nfet_01v8 ad=0.0693 pd=0.75 as=0.113 ps=1.04 w=0.42 l=0.15
X105 a_26469_2504# a_26051_2504# a_26225_2478# VDD sky130_fd_pr__pfet_01v8_hvt ad=0.113 pd=1.11 as=0.147 ps=1.23 w=0.84 l=0.15
X106 a_26051_9319# x2.x2.x2.IN a_25979_9457# VSS sky130_fd_pr__nfet_01v8 ad=0.122 pd=1.42 as=0.0441 ps=0.63 w=0.42 l=0.15
X107 a_18025_5384# a_17513_4992# VDD VDD sky130_fd_pr__pfet_01v8_hvt ad=0.0945 pd=0.87 as=0.0798 ps=0.8 w=0.42 l=0.15
X108 a_28551_2882# a_28162_2510# a_28443_2504# VSS sky130_fd_pr__nfet_01v8 ad=0.0671 pd=0.75 as=0.0684 ps=0.74 w=0.36 l=0.15
X109 VDD VDD a_26519_1838# VDD sky130_fd_pr__pfet_01v8_hvt ad=0.154 pd=1.34 as=0.166 ps=1.8 w=0.64 l=0.15
X110 VDD x5.x3.X a_25604_3790# VDD sky130_fd_pr__pfet_01v8_hvt ad=0.0864 pd=0.91 as=0.166 ps=1.8 w=0.64 l=0.15
X111 a_14081_4145# a_13915_4145# VDD VDD sky130_fd_pr__pfet_01v8_hvt ad=0.166 pd=1.8 as=0.0864 ps=0.91 w=0.64 l=0.15
X112 a_16873_3272# a_17009_3246# a_16454_3246# VSS sky130_fd_pr__nfet_01v8 ad=0.12 pd=1.08 as=0.0864 ps=0.91 w=0.64 l=0.15
X113 VSS x4.x15.S a_20121_n250# VSS sky130_fd_pr__nfet_01v8 ad=0.113 pd=1.04 as=0.0693 ps=0.75 w=0.42 l=0.15
X114 a_9080_n276# x4.x7.S VSS VSS sky130_fd_pr__nfet_01v8 ad=0.109 pd=1.36 as=0.145 ps=1.11 w=0.42 l=0.15
X115 VDD a_11883_7842# sample_clk_b VDD sky130_fd_pr__pfet_01v8 ad=0.391 pd=3.14 as=0.208 ps=1.59 w=1.26 l=0.15
X116 a_11406_n250# VSS a_11043_n98# VSS sky130_fd_pr__nfet_01v8 ad=0.0693 pd=0.75 as=0.0997 ps=0.895 w=0.42 l=0.15
X117 a_26225_3758# a_26051_3784# a_26365_4150# VSS sky130_fd_pr__nfet_01v8 ad=0.0864 pd=0.91 as=0.101 ps=0.99 w=0.64 l=0.15
X118 x4.x3.A a_8604_892# VDD VDD sky130_fd_pr__pfet_01v8_hvt ad=0.205 pd=2.1 as=0.115 ps=1.08 w=0.79 l=0.15
X119 a_11099_7835# sample_clk VSS VSS sky130_fd_pr__nfet_01v8 ad=0.0693 pd=0.75 as=0.113 ps=1.04 w=0.42 l=0.15
X120 VDD a_16360_4992# x4.x20.S VDD sky130_fd_pr__pfet_01v8_hvt ad=0.149 pd=1.33 as=0.26 ps=2.52 w=1 l=0.15
X121 a_24070_n1627# a_23955_n1353# a_23647_n1459# VSS sky130_fd_pr__nfet_01v8 ad=0.116 pd=1.09 as=0.0486 ps=0.63 w=0.36 l=0.15
X122 a_16767_3272# x3.x4.X VSS VSS sky130_fd_pr__nfet_01v8 ad=0.109 pd=1.36 as=0.097 ps=0.975 w=0.42 l=0.15
X123 x2.x2.x2.x6.SW sample_delay_offset VSS VSS sky130_fd_pr__nfet_01v8 ad=0.169 pd=1.82 as=0.169 ps=1.82 w=0.65 l=0.15
X124 a_22493_4119# a_22319_4145# a_22609_4145# VSS sky130_fd_pr__nfet_01v8 ad=0.0864 pd=0.91 as=0.12 ps=1.08 w=0.64 l=0.15
X125 VSS a_19320_4119# a_19254_4145# VSS sky130_fd_pr__nfet_01v8 ad=0.084 pd=0.82 as=0.0671 ps=0.75 w=0.42 l=0.15
X126 sample_clk a_11883_8462# VDD VDD sky130_fd_pr__pfet_01v8 ad=0.208 pd=1.59 as=0.208 ps=1.59 w=1.26 l=0.15
X127 VDD a_8653_n1475# vss_sw[7] VDD sky130_fd_pr__pfet_01v8_hvt ad=0.149 pd=1.33 as=0.26 ps=2.52 w=1 l=0.15
X128 VDD a_28911_1838# a_29632_2146# VDD sky130_fd_pr__pfet_01v8_hvt ad=0.218 pd=2.2 as=0.0882 ps=1.05 w=0.84 l=0.15
X129 a_17441_5707# a_16929_5681# VSS VSS sky130_fd_pr__nfet_01v8 ad=0.0935 pd=0.965 as=0.166 ps=1.8 w=0.64 l=0.15
X130 a_19302_n938# a_18790_n964# VSS VSS sky130_fd_pr__nfet_01v8 ad=0.116 pd=1.09 as=0.166 ps=1.8 w=0.64 l=0.15
X131 a_12330_n938# a_11160_n938# a_12223_n572# VSS sky130_fd_pr__nfet_01v8 ad=0.066 pd=0.745 as=0.0486 ps=0.63 w=0.36 l=0.15
X132 a_28757_3144# VDD VSS VSS sky130_fd_pr__nfet_01v8 ad=0.101 pd=0.99 as=0.084 ps=0.82 w=0.42 l=0.15
X133 a_10280_8554# a_9491_8544# VDD VDD sky130_fd_pr__pfet_01v8_hvt ad=0.0924 pd=0.86 as=0.0819 ps=0.81 w=0.42 l=0.15
X134 a_20709_n1653# a_21022_n1627# a_21128_n1627# VSS sky130_fd_pr__nfet_01v8 ad=0.0864 pd=0.91 as=0.166 ps=1.8 w=0.64 l=0.15
X135 x4.x17.X a_22290_77# VDD VDD sky130_fd_pr__pfet_01v8_hvt ad=0.26 pd=2.52 as=0.158 ps=1.39 w=1 l=0.15
X136 a_15121_4992# a_15389_5202# a_15335_5300# VDD sky130_fd_pr__pfet_01v8_hvt ad=0.147 pd=1.23 as=0.113 ps=1.11 w=0.84 l=0.15
X137 a_10482_8554# a_10345_8772# a_10046_8528# VDD sky130_fd_pr__pfet_01v8_hvt ad=0.174 pd=1.41 as=0.0567 ps=0.69 w=0.42 l=0.15
X138 a_15944_n938# a_15778_n938# VDD VDD sky130_fd_pr__pfet_01v8_hvt ad=0.166 pd=1.8 as=0.0864 ps=0.91 w=0.64 l=0.15
X139 VDD a_14774_n670# a_15495_n938# VDD sky130_fd_pr__pfet_01v8_hvt ad=0.149 pd=1.33 as=0.166 ps=1.8 w=0.64 l=0.15
X140 VSS a_27006_2478# a_27713_2520# VSS sky130_fd_pr__nfet_01v8 ad=0.097 pd=0.975 as=0.109 ps=1.36 w=0.42 l=0.15
X141 a_15053_3638# a_14916_3246# a_14617_3246# VDD sky130_fd_pr__pfet_01v8_hvt ad=0.174 pd=1.41 as=0.0567 ps=0.69 w=0.42 l=0.15
X142 a_24664_5409# x5.eob a_24592_5409# VSS sky130_fd_pr__nfet_01v8 ad=0.122 pd=1.42 as=0.0441 ps=0.63 w=0.42 l=0.15
X143 x3.x4.X a_11974_5018# VSS VSS sky130_fd_pr__nfet_01v8 ad=0.0878 pd=0.92 as=0.0878 ps=0.92 w=0.65 l=0.15
X144 a_29129_3144# a_28617_3118# VSS VSS sky130_fd_pr__nfet_01v8 ad=0.0935 pd=0.965 as=0.166 ps=1.8 w=0.64 l=0.15
X145 VSS x4.D[4] a_17697_n1627# VSS sky130_fd_pr__nfet_01v8 ad=0.109 pd=1.36 as=0.066 ps=0.745 w=0.42 l=0.15
X146 a_12223_11952# a_11075_11958# a_12137_12330# VDD sky130_fd_pr__pfet_01v8_hvt ad=0.0924 pd=0.86 as=0.0567 ps=0.69 w=0.42 l=0.15
X147 a_11974_5018# x3.x4.A VDD VDD sky130_fd_pr__pfet_01v8_hvt ad=0.135 pd=1.27 as=0.135 ps=1.27 w=1 l=0.15
X148 a_10521_n1627# a_9604_n1653# a_10076_n1443# VSS sky130_fd_pr__nfet_01v8 ad=0.066 pd=0.745 as=0.0675 ps=0.735 w=0.36 l=0.15
X149 a_19317_7792# x2.x2.x3.IN a_19229_7654# VDD sky130_fd_pr__pfet_01v8_hvt ad=0.122 pd=1.42 as=0.122 ps=1.42 w=0.42 l=0.15
X150 x3.x75.Q a_16024_4145# VSS VSS sky130_fd_pr__nfet_01v8 ad=0.169 pd=1.82 as=0.097 ps=0.975 w=0.65 l=0.15
X151 x1.x2.x9.output_stack ready a_2979_11507# VSS sky130_fd_pr__nfet_01v8 ad=0.122 pd=1.42 as=0.0441 ps=0.63 w=0.42 l=0.15
X152 VSS a_19558_n670# a_20279_n938# VSS sky130_fd_pr__nfet_01v8 ad=0.097 pd=0.975 as=0.109 ps=1.36 w=0.42 l=0.15
X153 VDD a_17710_5681# a_17622_6073# VDD sky130_fd_pr__pfet_01v8_hvt ad=0.0819 pd=0.81 as=0.0924 ps=0.86 w=0.42 l=0.15
X154 VSS a_9491_8544# x1.x27.Q_N VSS sky130_fd_pr__nfet_01v8 ad=0.097 pd=0.975 as=0.169 ps=1.82 w=0.65 l=0.15
X155 a_16863_5707# a_16474_5707# a_16755_6073# VSS sky130_fd_pr__nfet_01v8 ad=0.0671 pd=0.75 as=0.0684 ps=0.74 w=0.36 l=0.15
X156 a_18724_n938# a_18170_n938# a_18616_n572# VSS sky130_fd_pr__nfet_01v8 ad=0.0671 pd=0.75 as=0.0675 ps=0.735 w=0.36 l=0.15
X157 a_29224_2882# a_28162_2510# a_29129_2826# VSS sky130_fd_pr__nfet_01v8 ad=0.0711 pd=0.755 as=0.0935 ps=0.965 w=0.36 l=0.15
X158 a_13252_8858# x2.x7.A VDD VSS sky130_fd_pr__nfet_01v8 ad=0.0651 pd=0.73 as=0.0693 ps=0.75 w=0.42 l=0.15
X159 VDD a_16929_5681# a_16839_6073# VDD sky130_fd_pr__pfet_01v8_hvt ad=0.0798 pd=0.8 as=0.0945 ps=0.87 w=0.42 l=0.15
X160 a_29310_2504# a_28162_2510# a_29224_2882# VDD sky130_fd_pr__pfet_01v8_hvt ad=0.0924 pd=0.86 as=0.0567 ps=0.69 w=0.42 l=0.15
X161 x3.x30.Q_N a_17710_5681# VDD VDD sky130_fd_pr__pfet_01v8_hvt ad=0.26 pd=2.52 as=0.154 ps=1.34 w=1 l=0.15
X162 a_17010_4992# a_17308_5292# a_17244_5384# VDD sky130_fd_pr__pfet_01v8_hvt ad=0.0567 pd=0.69 as=0.0924 ps=0.86 w=0.42 l=0.15
X163 a_21898_n938# a_20728_n938# a_21791_n572# VSS sky130_fd_pr__nfet_01v8 ad=0.066 pd=0.745 as=0.0486 ps=0.63 w=0.36 l=0.15
X164 VSS a_14006_n964# a_13940_n938# VSS sky130_fd_pr__nfet_01v8 ad=0.0882 pd=0.84 as=0.0671 ps=0.75 w=0.42 l=0.15
X165 sar_result[3] a_30105_3144# VDD VDD sky130_fd_pr__pfet_01v8_hvt ad=0.26 pd=2.52 as=0.149 ps=1.33 w=1 l=0.15
X166 a_21539_6073# a_21258_5707# a_21446_5707# VDD sky130_fd_pr__pfet_01v8_hvt ad=0.0567 pd=0.69 as=0.0662 ps=0.735 w=0.42 l=0.15
X167 x5.x1[7].Q_N a_29398_1838# VSS VSS sky130_fd_pr__nfet_01v8 ad=0.169 pd=1.82 as=0.097 ps=0.975 w=0.65 l=0.15
X168 a_8749_n1653# a_9062_n1627# a_9168_n1627# VSS sky130_fd_pr__nfet_01v8 ad=0.0864 pd=0.91 as=0.166 ps=1.8 w=0.64 l=0.15
X169 a_13832_n572# a_13386_n938# a_13740_n938# VDD sky130_fd_pr__pfet_01v8_hvt ad=0.0567 pd=0.69 as=0.0651 ps=0.73 w=0.42 l=0.15
X170 a_20974_n250# VSS a_20611_n98# VSS sky130_fd_pr__nfet_01v8 ad=0.0693 pd=0.75 as=0.0997 ps=0.895 w=0.42 l=0.15
X171 a_24612_77# a_24430_77# VDD VDD sky130_fd_pr__pfet_01v8_hvt ad=0.0441 pd=0.63 as=0.0693 ps=0.75 w=0.42 l=0.15
X172 a_17535_4145# a_16473_4145# a_17440_4145# VSS sky130_fd_pr__nfet_01v8 ad=0.0711 pd=0.755 as=0.0935 ps=0.965 w=0.36 l=0.15
X173 VSS a_18648_n276# a_18582_n250# VSS sky130_fd_pr__nfet_01v8 ad=0.145 pd=1.11 as=0.0693 ps=0.75 w=0.42 l=0.15
X174 VSS a_22296_3246# a_22231_3272# VSS sky130_fd_pr__nfet_01v8 ad=0.166 pd=1.8 as=0.0935 ps=0.965 w=0.64 l=0.15
X175 x2.x7.A x2.x2.x3.x9.output_stack a_13252_8655# VDD sky130_fd_pr__pfet_01v8_hvt ad=0.122 pd=1.42 as=0.0651 ps=0.73 w=0.42 l=0.15
X176 x4.x9.A1 a_13898_892# VSS VSS sky130_fd_pr__nfet_01v8 ad=0.0878 pd=0.92 as=0.0878 ps=0.92 w=0.65 l=0.15
X177 x4.x20.X a_24684_77# VDD VDD sky130_fd_pr__pfet_01v8_hvt ad=0.26 pd=2.52 as=0.158 ps=1.39 w=1 l=0.15
X178 x3.x75.Q_N a_15317_4119# VDD VDD sky130_fd_pr__pfet_01v8_hvt ad=0.26 pd=2.52 as=0.154 ps=1.34 w=1 l=0.15
X179 a_20601_13233# x2.x2.x1.IN a_20513_13095# VDD sky130_fd_pr__pfet_01v8_hvt ad=0.122 pd=1.42 as=0.122 ps=1.42 w=0.42 l=0.15
X180 a_2979_9469# sar_clk a_2891_9331# VSS sky130_fd_pr__nfet_01v8 ad=0.0441 pd=0.63 as=0.122 ps=1.42 w=0.42 l=0.15
X181 a_20916_n938# x4.D[2] VSS VSS sky130_fd_pr__nfet_01v8 ad=0.066 pd=0.745 as=0.109 ps=1.36 w=0.42 l=0.15
X182 a_9110_77# x4.x9.A1 a_8651_n98# VDD sky130_fd_pr__pfet_01v8_hvt ad=0.0441 pd=0.63 as=0.193 ps=1.34 w=0.42 l=0.15
X183 a_17710_5681# a_17536_5707# a_17826_5707# VSS sky130_fd_pr__nfet_01v8 ad=0.0864 pd=0.91 as=0.12 ps=1.08 w=0.64 l=0.15
X184 VDD a_26519_3118# a_27240_3426# VDD sky130_fd_pr__pfet_01v8_hvt ad=0.218 pd=2.2 as=0.0882 ps=1.05 w=0.84 l=0.15
X185 VDD a_11530_11926# a_11440_11952# VDD sky130_fd_pr__pfet_01v8_hvt ad=0.0798 pd=0.8 as=0.0945 ps=0.87 w=0.42 l=0.15
X186 a_14481_3272# a_14617_3246# a_14062_3246# VSS sky130_fd_pr__nfet_01v8 ad=0.12 pd=1.08 as=0.0864 ps=0.91 w=0.64 l=0.15
X187 VSS a_24342_n670# a_24290_n938# VSS sky130_fd_pr__nfet_01v8 ad=0.0703 pd=0.755 as=0.066 ps=0.745 w=0.42 l=0.15
X188 a_24374_n1345# a_23414_n1627# VDD VDD sky130_fd_pr__pfet_01v8_hvt ad=0.113 pd=1.11 as=0.225 ps=1.38 w=0.84 l=0.15
X189 a_28551_3144# a_28162_3144# a_28443_3510# VSS sky130_fd_pr__nfet_01v8 ad=0.0671 pd=0.75 as=0.0684 ps=0.74 w=0.36 l=0.15
X190 a_13846_n1627# x4.x2.X VSS VSS sky130_fd_pr__nfet_01v8 ad=0.109 pd=1.36 as=0.097 ps=0.975 w=0.42 l=0.15
X191 VSS x3.x4.X a_19614_4119# VSS sky130_fd_pr__nfet_01v8 ad=0.097 pd=0.975 as=0.109 ps=1.36 w=0.42 l=0.15
X192 a_19342_9043# x2.x2.x3.IN a_19270_9181# VSS sky130_fd_pr__nfet_01v8 ad=0.122 pd=1.42 as=0.0441 ps=0.63 w=0.42 l=0.15
X193 x2.x2.x2.x5[7].floating x2.x2.x2.x10.Y x2.x2.x2.x9.output_stack VDD sky130_fd_pr__pfet_01v8 ad=0.122 pd=1.42 as=0.101 ps=0.9 w=0.42 l=0.15
X194 VDD x2.x3.Y a_12261_8772# VDD sky130_fd_pr__pfet_01v8 ad=0.406 pd=3.38 as=0.406 ps=3.38 w=1.4 l=0.15
X195 a_3004_7942# sar_clk a_2916_7804# VDD sky130_fd_pr__pfet_01v8_hvt ad=0.122 pd=1.42 as=0.122 ps=1.42 w=0.42 l=0.15
X196 VDD a_27006_1838# a_27713_1864# VDD sky130_fd_pr__pfet_01v8_hvt ad=0.149 pd=1.33 as=0.166 ps=1.8 w=0.64 l=0.15
X197 a_23400_n572# a_23120_n938# a_23308_n938# VSS sky130_fd_pr__nfet_01v8 ad=0.0675 pd=0.735 as=0.066 ps=0.745 w=0.36 l=0.15
X198 a_10130_7987# x1.x3.X a_10272_8162# VDD sky130_fd_pr__pfet_01v8_hvt ad=0.193 pd=1.34 as=0.0767 ps=0.785 w=0.42 l=0.15
X199 a_8789_11554# x1.x9.A VDD VSS sky130_fd_pr__nfet_01v8 ad=0.13 pd=1.46 as=0.0693 ps=0.75 w=0.42 l=0.15
X200 a_19270_9871# x2.x2.x3.IN a_19182_9733# VSS sky130_fd_pr__nfet_01v8 ad=0.0441 pd=0.63 as=0.122 ps=1.42 w=0.42 l=0.15
X201 a_22405_4511# a_21257_4145# a_22319_4145# VDD sky130_fd_pr__pfet_01v8_hvt ad=0.0924 pd=0.86 as=0.0567 ps=0.69 w=0.42 l=0.15
X202 VSS x4.D[1] a_24873_n1627# VSS sky130_fd_pr__nfet_01v8 ad=0.109 pd=1.36 as=0.066 ps=0.745 w=0.42 l=0.15
X203 a_16910_n938# a_16398_n964# VSS VSS sky130_fd_pr__nfet_01v8 ad=0.116 pd=1.09 as=0.166 ps=1.8 w=0.64 l=0.15
X204 VSS a_12382_n670# a_12330_n938# VSS sky130_fd_pr__nfet_01v8 ad=0.0703 pd=0.755 as=0.066 ps=0.745 w=0.42 l=0.15
X205 x3.x7.X a_11392_4144# VSS VSS sky130_fd_pr__nfet_01v8 ad=0.0878 pd=0.92 as=0.0878 ps=0.92 w=0.65 l=0.15
X206 a_14081_4145# a_13915_4145# VSS VSS sky130_fd_pr__nfet_01v8 ad=0.109 pd=1.36 as=0.0567 ps=0.69 w=0.42 l=0.15
X207 x5.x2.x9.output_stack x5.x2.x10.Y x5.x2.x5[7].floating VDD sky130_fd_pr__pfet_01v8 ad=0.101 pd=0.9 as=0.122 ps=1.42 w=0.42 l=0.15
X208 a_9366_n938# x4.x2.X VSS VSS sky130_fd_pr__nfet_01v8 ad=0.0974 pd=0.97 as=0.0882 ps=0.84 w=0.42 l=0.15
X209 a_29398_3118# a_29224_3144# a_29514_3144# VSS sky130_fd_pr__nfet_01v8 ad=0.0864 pd=0.91 as=0.12 ps=1.08 w=0.64 l=0.15
X210 a_19230_4511# a_18699_4145# a_19146_4511# VDD sky130_fd_pr__pfet_01v8_hvt ad=0.0945 pd=0.87 as=0.0567 ps=0.69 w=0.42 l=0.15
X211 a_15317_4119# x3.x77.Y VDD VDD sky130_fd_pr__pfet_01v8_hvt ad=0.123 pd=1.17 as=0.0819 ps=0.81 w=0.42 l=0.15
X212 x3.x66.Q_N a_22493_4119# VSS VSS sky130_fd_pr__nfet_01v8 ad=0.169 pd=1.82 as=0.097 ps=0.975 w=0.65 l=0.15
X213 VDD a_11360_5018# x3.x4.A VDD sky130_fd_pr__pfet_01v8_hvt ad=0.26 pd=2.52 as=0.135 ps=1.27 w=1 l=0.15
X214 a_12661_3638# a_12524_3246# a_12225_3246# VDD sky130_fd_pr__pfet_01v8_hvt ad=0.174 pd=1.41 as=0.0567 ps=0.69 w=0.42 l=0.15
X215 VDD x1.x9.Y a_9491_8544# VDD sky130_fd_pr__pfet_01v8_hvt ad=0.0819 pd=0.81 as=0.123 ps=1.17 w=0.42 l=0.15
X216 a_11687_n1459# a_11996_n1653# a_11931_n1627# VSS sky130_fd_pr__nfet_01v8 ad=0.0486 pd=0.63 as=0.066 ps=0.745 w=0.36 l=0.15
X217 x4.x2.X a_9514_892# VSS VSS sky130_fd_pr__nfet_01v8 ad=0.0878 pd=0.92 as=0.0878 ps=0.92 w=0.65 l=0.15
X218 a_29398_3758# VDD VDD VDD sky130_fd_pr__pfet_01v8_hvt ad=0.123 pd=1.17 as=0.0819 ps=0.81 w=0.42 l=0.15
X219 a_20172_3456# a_19699_3546# a_20416_3272# VSS sky130_fd_pr__nfet_01v8 ad=0.0684 pd=0.74 as=0.0671 ps=0.75 w=0.36 l=0.15
X220 a_26026_7516# x2.x2.x2.IN VDD VDD sky130_fd_pr__pfet_01v8_hvt ad=0.122 pd=1.42 as=0.122 ps=1.42 w=0.42 l=0.15
X221 a_19677_12029# x2.x2.x1.IN VDD VSS sky130_fd_pr__nfet_01v8 ad=0.13 pd=1.46 as=0.0693 ps=0.75 w=0.42 l=0.15
X222 VDD VDD a_19376_n1653# VDD sky130_fd_pr__pfet_01v8_hvt ad=0.0798 pd=0.8 as=0.147 ps=1.23 w=0.42 l=0.15
X223 a_25979_9595# x2.x2.x2.IN a_25891_9457# VSS sky130_fd_pr__nfet_01v8 ad=0.0441 pd=0.63 as=0.122 ps=1.42 w=0.42 l=0.15
X224 VSS x4.x17.S a_22036_77# VSS sky130_fd_pr__nfet_01v8 ad=0.145 pd=1.11 as=0.109 ps=1.36 w=0.42 l=0.15
X225 a_28162_2510# a_27996_2510# VSS VSS sky130_fd_pr__nfet_01v8 ad=0.109 pd=1.36 as=0.0567 ps=0.69 w=0.42 l=0.15
X226 VDD x3.x75.Q a_16307_4145# VDD sky130_fd_pr__pfet_01v8_hvt ad=0.0864 pd=0.91 as=0.166 ps=1.8 w=0.64 l=0.15
X227 a_13898_892# x4.x30.A VDD VDD sky130_fd_pr__pfet_01v8_hvt ad=0.135 pd=1.27 as=0.26 ps=2.52 w=1 l=0.15
X228 VDD VDD a_21239_4992# VDD sky130_fd_pr__pfet_01v8_hvt ad=0.0819 pd=0.81 as=0.123 ps=1.17 w=0.42 l=0.15
X229 vdd_sw[3] a_20279_n938# VDD VDD sky130_fd_pr__pfet_01v8_hvt ad=0.26 pd=2.52 as=0.149 ps=1.33 w=1 l=0.15
X230 a_13892_12957# x2.x3.A a_13804_12819# VDD sky130_fd_pr__pfet_01v8_hvt ad=0.122 pd=1.42 as=0.122 ps=1.42 w=0.42 l=0.15
X231 VDD a_10130_7987# sar_clk VDD sky130_fd_pr__pfet_01v8_hvt ad=0.158 pd=1.39 as=0.26 ps=2.52 w=1 l=0.15
X232 a_10272_8162# x5.eob VDD VDD sky130_fd_pr__pfet_01v8_hvt ad=0.0767 pd=0.785 as=0.158 ps=1.39 w=0.42 l=0.15
X233 a_20040_3272# a_20172_3456# a_19904_3246# VSS sky130_fd_pr__nfet_01v8 ad=0.101 pd=0.99 as=0.0864 ps=0.91 w=0.64 l=0.15
X234 a_21040_n276# x4.x17.S VDD VDD sky130_fd_pr__pfet_01v8_hvt ad=0.118 pd=1.4 as=0.0693 ps=0.75 w=0.42 l=0.15
X235 a_14618_4992# a_14916_5292# a_14852_5384# VDD sky130_fd_pr__pfet_01v8_hvt ad=0.0567 pd=0.69 as=0.0924 ps=0.86 w=0.42 l=0.15
X236 VSS a_11614_n964# a_11548_n938# VSS sky130_fd_pr__nfet_01v8 ad=0.0882 pd=0.84 as=0.0671 ps=0.75 w=0.42 l=0.15
X237 a_13867_11844# x2.x3.A a_13779_11844# VSS sky130_fd_pr__nfet_01v8 ad=0.0441 pd=0.63 as=0.122 ps=1.42 w=0.42 l=0.15
X238 a_29224_3144# a_28162_3144# a_29129_3144# VSS sky130_fd_pr__nfet_01v8 ad=0.0711 pd=0.755 as=0.0935 ps=0.965 w=0.36 l=0.15
X239 a_22027_3638# a_21238_3246# VDD VDD sky130_fd_pr__pfet_01v8_hvt ad=0.0924 pd=0.86 as=0.0819 ps=0.81 w=0.42 l=0.15
X240 a_21904_n1627# a_22036_n1443# a_21768_n1653# VSS sky130_fd_pr__nfet_01v8 ad=0.0974 pd=0.97 as=0.0864 ps=0.91 w=0.64 l=0.15
X241 a_11099_8162# sample_clk VDD VDD sky130_fd_pr__pfet_01v8_hvt ad=0.0767 pd=0.785 as=0.158 ps=1.39 w=0.42 l=0.15
X242 a_11645_n1345# a_11454_n1627# VDD VDD sky130_fd_pr__pfet_01v8_hvt ad=0.0882 pd=1.05 as=0.218 ps=2.2 w=0.84 l=0.15