* NGSPICE file created from hgu_sarlogic_8bit_logic_flat.ext - technology: sky130A

.subckt hgu_sarlogic_8bit_logic_flat sel_bit[0] sel_bit[1] reset eob comparator_out
+ D[7] D[6] check[6] D[5] check[0] check[5] check[1] check[4] check[2] check[3] D[2]
+ D[3] D[1] D[4] D[0] clk_sar VSS VDD
X0 VDD.t61 a_10680_2340# D[3].t1 VDD.t60 sky130_fd_pr__pfet_01v8_hvt ad=0.149 pd=1.33 as=0.26 ps=2.52 w=1 l=0.15
X1 VDD.t86 a_8289_4086# check[1].t1 VDD.t85 sky130_fd_pr__pfet_01v8_hvt ad=0.149 pd=1.33 as=0.26 ps=2.52 w=1 l=0.15
X2 VDD.t549 D[0].t2 a_8236_3239# VDD.t548 sky130_fd_pr__pfet_01v8_hvt ad=0.0864 pd=0.91 as=0.166 ps=1.8 w=0.64 l=0.15
X3 VDD.t418 a_2389_5648# eob.t4 VDD.t417 sky130_fd_pr__pfet_01v8_hvt ad=0.154 pd=1.34 as=0.135 ps=1.27 w=1 l=0.15
X4 a_12030_3213# a_11856_3239# a_12146_3239# VSS.t253 sky130_fd_pr__nfet_01v8 ad=0.0864 pd=0.91 as=0.12 ps=1.08 w=0.64 l=0.15
X5 VDD.t198 a_1338_5674# x5.X.t3 VDD.t197 sky130_fd_pr__pfet_01v8_hvt ad=0.26 pd=2.52 as=0.135 ps=1.27 w=1 l=0.15
X6 a_4971_4801# VDD.t743 VSS.t174 VSS.t173 sky130_fd_pr__nfet_01v8 ad=0.12 pd=1.08 as=0.0588 ps=0.7 w=0.42 l=0.15
X7 a_2147_5083# a_1682_4775# VDD.t395 VDD.t394 sky130_fd_pr__pfet_01v8_hvt ad=0.174 pd=1.41 as=0.225 ps=1.38 w=0.84 l=0.15
X8 a_1822_4801# x4.X.t32 VSS.t90 VSS.t89 sky130_fd_pr__nfet_01v8 ad=0.101 pd=0.99 as=0.084 ps=0.82 w=0.42 l=0.15
X9 a_11330_2340# a_11628_2640# a_11564_2732# VDD.t72 sky130_fd_pr__pfet_01v8_hvt ad=0.0567 pd=0.69 as=0.0924 ps=0.86 w=0.42 l=0.15
X10 VSS.t252 a_12030_3213# a_12737_3239# VSS.t251 sky130_fd_pr__nfet_01v8 ad=0.097 pd=0.975 as=0.109 ps=1.36 w=0.42 l=0.15
X11 a_4213_3239# a_4367_3213# a_4073_3213# VSS.t601 sky130_fd_pr__nfet_01v8 ad=0.166 pd=1.8 as=0.0864 ps=0.91 w=0.64 l=0.15
X12 a_8591_4801# check[5].t2 VSS.t423 VSS.t422 sky130_fd_pr__nfet_01v8 ad=0.066 pd=0.745 as=0.109 ps=1.36 w=0.42 l=0.15
X13 a_9710_4296# a_9238_4086# a_9954_4478# VDD.t348 sky130_fd_pr__pfet_01v8_hvt ad=0.0567 pd=0.69 as=0.0945 ps=0.87 w=0.42 l=0.15
X14 VSS.t593 x30.Q_N a_7185_2366# VSS.t592 sky130_fd_pr__nfet_01v8 ad=0.084 pd=0.82 as=0.101 ps=0.99 w=0.42 l=0.15
X15 VDD.t543 a_11250_4775# a_11160_5167# VDD.t542 sky130_fd_pr__pfet_01v8_hvt ad=0.0798 pd=0.8 as=0.0945 ps=0.87 w=0.42 l=0.15
X16 VSS.t413 a_5992_4086# x45.Q_N VSS.t412 sky130_fd_pr__nfet_01v8 ad=0.097 pd=0.975 as=0.169 ps=1.82 w=0.65 l=0.15
X17 a_3599_2340# a_3912_2366# a_4018_2366# VSS.t100 sky130_fd_pr__nfet_01v8 ad=0.0864 pd=0.91 as=0.166 ps=1.8 w=0.64 l=0.15
X18 x72.Q_N a_7246_3213# VSS.t134 VSS.t133 sky130_fd_pr__nfet_01v8 ad=0.169 pd=1.82 as=0.097 ps=0.975 w=0.65 l=0.15
X19 VSS.t360 x27.Q_N a_4018_2366# VSS.t359 sky130_fd_pr__nfet_01v8 ad=0.0588 pd=0.7 as=0.12 ps=1.08 w=0.42 l=0.15
X20 a_4854_3213# x77.Y VDD.t670 VDD.t669 sky130_fd_pr__pfet_01v8_hvt ad=0.123 pd=1.17 as=0.0819 ps=0.81 w=0.42 l=0.15
X21 a_7072_3239# a_5844_3239# a_6930_3521# VDD.t611 sky130_fd_pr__pfet_01v8_hvt ad=0.0567 pd=0.69 as=0.174 ps=1.41 w=0.42 l=0.15
X22 a_9442_4086# a_8697_4112# a_9578_4112# VSS.t421 sky130_fd_pr__nfet_01v8 ad=0.0864 pd=0.91 as=0.166 ps=1.8 w=0.64 l=0.15
X23 VSS.t268 x4.X.t33 a_9151_3213# VSS.t267 sky130_fd_pr__nfet_01v8 ad=0.097 pd=0.975 as=0.109 ps=1.36 w=0.42 l=0.15
X24 VDD.t132 a_7246_3213# a_7158_3605# VDD.t131 sky130_fd_pr__pfet_01v8_hvt ad=0.0819 pd=0.81 as=0.0924 ps=0.86 w=0.42 l=0.15
X25 VDD.t39 a_5897_4086# check[0].t0 VDD.t38 sky130_fd_pr__pfet_01v8_hvt ad=0.149 pd=1.33 as=0.26 ps=2.52 w=1 l=0.15
X26 a_11089_4112# x4.X.t34 VDD.t289 VDD.t288 sky130_fd_pr__pfet_01v8_hvt ad=0.166 pd=1.8 as=0.154 ps=1.34 w=0.64 l=0.15
X27 a_4793_2366# a_4925_2550# a_4657_2340# VSS.t459 sky130_fd_pr__nfet_01v8 ad=0.101 pd=0.99 as=0.0864 ps=0.91 w=0.64 l=0.15
X28 VDD.t10 x75.Q a_5844_3239# VDD.t9 sky130_fd_pr__pfet_01v8_hvt ad=0.0864 pd=0.91 as=0.166 ps=1.8 w=0.64 l=0.15
X29 a_6978_4801# a_6466_4775# VSS.t302 VSS.t301 sky130_fd_pr__nfet_01v8 ad=0.0935 pd=0.965 as=0.166 ps=1.8 w=0.64 l=0.15
X30 a_4388_2732# a_3599_2340# VDD.t36 VDD.t35 sky130_fd_pr__pfet_01v8_hvt ad=0.0924 pd=0.86 as=0.0819 ps=0.81 w=0.42 l=0.15
X31 a_2788_5674# check[2].t2 VSS.t577 VSS.t576 sky130_fd_pr__nfet_01v8 ad=0.066 pd=0.745 as=0.107 ps=1 w=0.42 l=0.15
X32 a_10794_3239# a_10628_3239# VDD.t255 VDD.t254 sky130_fd_pr__pfet_01v8_hvt ad=0.166 pd=1.8 as=0.0864 ps=0.91 w=0.64 l=0.15
X33 VSS.t673 D[0].t3 a_8236_3239# VSS.t672 sky130_fd_pr__nfet_01v8 ad=0.0567 pd=0.69 as=0.109 ps=1.36 w=0.42 l=0.15
X34 VDD.t112 x4.X.t35 a_4368_4775# VDD.t111 sky130_fd_pr__pfet_01v8_hvt ad=0.154 pd=1.34 as=0.166 ps=1.8 w=0.64 l=0.15
X35 a_9465_4801# a_8403_4801# a_9370_4801# VSS.t463 sky130_fd_pr__nfet_01v8 ad=0.0711 pd=0.755 as=0.0935 ps=0.965 w=0.36 l=0.15
X36 VSS.t356 a_1511_4112# x4.X.t31 VSS.t355 sky130_fd_pr__nfet_01v8 ad=0.0878 pd=0.92 as=0.0878 ps=0.92 w=0.65 l=0.15
X37 a_12048_4394# a_11089_4112# VDD.t280 VDD.t279 sky130_fd_pr__pfet_01v8_hvt ad=0.113 pd=1.11 as=0.225 ps=1.38 w=0.84 l=0.15
X38 a_9101_3521# a_8683_3605# a_8857_3213# VDD.t11 sky130_fd_pr__pfet_01v8_hvt ad=0.113 pd=1.11 as=0.147 ps=1.23 w=0.84 l=0.15
X39 a_7247_4775# VDD.t187 VDD.t189 VDD.t188 sky130_fd_pr__pfet_01v8_hvt ad=0.123 pd=1.17 as=0.0819 ps=0.81 w=0.42 l=0.15
X40 VDD.t682 a_6846_4086# a_6845_4386# VDD.t681 sky130_fd_pr__pfet_01v8_hvt ad=0.0864 pd=0.91 as=0.166 ps=1.8 w=0.64 l=0.15
X41 VSS.t116 x20.Q_N a_1626_2366# VSS.t115 sky130_fd_pr__nfet_01v8 ad=0.0588 pd=0.7 as=0.12 ps=1.08 w=0.42 l=0.15
X42 D[2].t1 a_12737_3239# VSS.t603 VSS.t602 sky130_fd_pr__nfet_01v8 ad=0.169 pd=1.82 as=0.097 ps=0.975 w=0.65 l=0.15
X43 a_11250_4775# a_11076_5167# a_11390_4801# VSS.t369 sky130_fd_pr__nfet_01v8 ad=0.0864 pd=0.91 as=0.101 ps=0.99 w=0.64 l=0.15
X44 a_4680_3239# a_3452_3239# a_4538_3521# VDD.t401 sky130_fd_pr__pfet_01v8_hvt ad=0.0567 pd=0.69 as=0.174 ps=1.41 w=0.42 l=0.15
X45 a_2479_2648# a_1520_2366# VDD.t488 VDD.t487 sky130_fd_pr__pfet_01v8_hvt ad=0.113 pd=1.11 as=0.225 ps=1.38 w=0.84 l=0.15
X46 VDD.t48 a_4854_3213# a_4766_3605# VDD.t47 sky130_fd_pr__pfet_01v8_hvt ad=0.0819 pd=0.81 as=0.0924 ps=0.86 w=0.42 l=0.15
X47 a_11184_4801# a_10795_4801# a_11076_5167# VSS.t126 sky130_fd_pr__nfet_01v8 ad=0.0671 pd=0.75 as=0.0684 ps=0.74 w=0.36 l=0.15
X48 a_2784_5996# check[2].t3 VDD.t80 VDD.t79 sky130_fd_pr__pfet_01v8_hvt ad=0.105 pd=0.995 as=0.154 ps=1.34 w=0.64 l=0.15
X49 a_4593_4112# a_4453_4386# a_4155_4086# VSS.t419 sky130_fd_pr__nfet_01v8 ad=0.0935 pd=0.965 as=0.0711 ps=0.755 w=0.36 l=0.15
X50 a_1996_2732# a_1207_2340# VDD.t591 VDD.t590 sky130_fd_pr__pfet_01v8_hvt ad=0.0924 pd=0.86 as=0.0819 ps=0.81 w=0.42 l=0.15
X51 a_7181_3239# a_5844_3239# a_7072_3239# VSS.t574 sky130_fd_pr__nfet_01v8 ad=0.066 pd=0.745 as=0.0711 ps=0.755 w=0.36 l=0.15
X52 a_6198_3239# x7.X VSS.t619 VSS.t618 sky130_fd_pr__nfet_01v8 ad=0.066 pd=0.745 as=0.109 ps=1.36 w=0.42 l=0.15
X53 x4.X.t15 a_1511_4112# VDD.t383 VDD.t382 sky130_fd_pr__pfet_01v8_hvt ad=0.135 pd=1.27 as=0.135 ps=1.27 w=1 l=0.15
X54 a_2265_2340# a_1520_2366# a_2401_2366# VSS.t461 sky130_fd_pr__nfet_01v8 ad=0.0864 pd=0.91 as=0.166 ps=1.8 w=0.64 l=0.15
X55 a_12031_4775# a_11857_4801# a_12147_4801# VSS.t52 sky130_fd_pr__nfet_01v8 ad=0.0864 pd=0.91 as=0.12 ps=1.08 w=0.64 l=0.15
X56 VSS.t12 x75.Q a_5844_3239# VSS.t11 sky130_fd_pr__nfet_01v8 ad=0.0567 pd=0.69 as=0.109 ps=1.36 w=0.42 l=0.15
X57 VDD.t186 VDD.t184 a_1976_4775# VDD.t185 sky130_fd_pr__pfet_01v8_hvt ad=0.154 pd=1.34 as=0.166 ps=1.8 w=0.64 l=0.15
X58 VSS.t651 a_7050_4086# a_6985_4112# VSS.t650 sky130_fd_pr__nfet_01v8 ad=0.166 pd=1.8 as=0.0935 ps=0.965 w=0.64 l=0.15
X59 a_1762_2340# a_2060_2640# a_1996_2732# VDD.t216 sky130_fd_pr__pfet_01v8_hvt ad=0.0567 pd=0.69 as=0.0924 ps=0.86 w=0.42 l=0.15
X60 VDD.t539 check[1].t2 a_2969_6040# VDD.t538 sky130_fd_pr__pfet_01v8_hvt ad=0.166 pd=1.8 as=0.138 ps=1.16 w=0.64 l=0.15
X61 a_2883_5674# a_2853_5648# a_2788_5674# VSS.t645 sky130_fd_pr__nfet_01v8 ad=0.072 pd=0.76 as=0.066 ps=0.745 w=0.36 l=0.15
X62 a_7562_4478# a_7050_4086# VDD.t704 VDD.t703 sky130_fd_pr__pfet_01v8_hvt ad=0.0945 pd=0.87 as=0.0798 ps=0.8 w=0.42 l=0.15
X63 a_10775_2340# a_11088_2366# a_11194_2366# VSS.t189 sky130_fd_pr__nfet_01v8 ad=0.0864 pd=0.91 as=0.166 ps=1.8 w=0.64 l=0.15
X64 a_6504_2648# a_6304_2366# VDD.t204 VDD.t203 sky130_fd_pr__pfet_01v8_hvt ad=0.0882 pd=1.05 as=0.218 ps=2.2 w=0.84 l=0.15
X65 a_4214_4801# a_4368_4775# a_4074_4775# VSS.t401 sky130_fd_pr__nfet_01v8 ad=0.166 pd=1.8 as=0.0864 ps=0.91 w=0.64 l=0.15
X66 VSS.t683 x36.Q_N a_11194_2366# VSS.t682 sky130_fd_pr__nfet_01v8 ad=0.0588 pd=0.7 as=0.12 ps=1.08 w=0.42 l=0.15
X67 a_10794_3239# a_10628_3239# VSS.t238 VSS.t237 sky130_fd_pr__nfet_01v8 ad=0.109 pd=1.36 as=0.0567 ps=0.69 w=0.42 l=0.15
X68 a_1511_4112# x4.A VSS.t540 VSS.t539 sky130_fd_pr__nfet_01v8 ad=0.0878 pd=0.92 as=0.0878 ps=0.92 w=0.65 l=0.15
X69 a_4855_4775# VDD.t181 VDD.t183 VDD.t182 sky130_fd_pr__pfet_01v8_hvt ad=0.123 pd=1.17 as=0.0819 ps=0.81 w=0.42 l=0.15
X70 a_7073_4801# a_5845_4801# a_6931_5083# VDD.t738 sky130_fd_pr__pfet_01v8_hvt ad=0.0567 pd=0.69 as=0.174 ps=1.41 w=0.42 l=0.15
X71 VDD.t67 a_4454_4086# a_4453_4386# VDD.t66 sky130_fd_pr__pfet_01v8_hvt ad=0.0864 pd=0.91 as=0.166 ps=1.8 w=0.64 l=0.15
X72 VDD.t320 a_7247_4775# a_7159_5167# VDD.t319 sky130_fd_pr__pfet_01v8_hvt ad=0.0819 pd=0.81 as=0.0924 ps=0.86 w=0.42 l=0.15
X73 x4.A a_897_4112# VDD.t603 VDD.t602 sky130_fd_pr__pfet_01v8_hvt ad=0.135 pd=1.27 as=0.135 ps=1.27 w=1 l=0.15
X74 VDD.t196 a_1338_5674# x5.X.t2 VDD.t195 sky130_fd_pr__pfet_01v8_hvt ad=0.135 pd=1.27 as=0.135 ps=1.27 w=1 l=0.15
X75 x30.Q_N a_7247_4775# VSS.t293 VSS.t292 sky130_fd_pr__nfet_01v8 ad=0.169 pd=1.82 as=0.097 ps=0.975 w=0.65 l=0.15
X76 x4.X.t14 a_1511_4112# VDD.t381 VDD.t380 sky130_fd_pr__pfet_01v8_hvt ad=0.135 pd=1.27 as=0.135 ps=1.27 w=1 l=0.15
X77 a_12345_2732# a_11833_2340# VDD.t476 VDD.t475 sky130_fd_pr__pfet_01v8_hvt ad=0.0945 pd=0.87 as=0.0798 ps=0.8 w=0.42 l=0.15
X78 VSS.t407 check[0].t2 a_5372_4112# VSS.t406 sky130_fd_pr__nfet_01v8 ad=0.109 pd=1.36 as=0.066 ps=0.745 w=0.42 l=0.15
X79 a_8803_4112# a_8939_4086# a_8384_4086# VSS.t67 sky130_fd_pr__nfet_01v8 ad=0.12 pd=1.08 as=0.0864 ps=0.91 w=0.64 l=0.15
X80 VSS.t118 x4.X.t36 a_9152_4775# VSS.t117 sky130_fd_pr__nfet_01v8 ad=0.097 pd=0.975 as=0.109 ps=1.36 w=0.42 l=0.15
X81 a_3806_3239# VSS.t544 VSS.t546 VSS.t545 sky130_fd_pr__nfet_01v8 ad=0.066 pd=0.745 as=0.109 ps=1.36 w=0.42 l=0.15
X82 VDD.t108 x20.Q_N a_1207_2340# VDD.t107 sky130_fd_pr__pfet_01v8_hvt ad=0.0819 pd=0.81 as=0.123 ps=1.17 w=0.42 l=0.15
X83 VSS.t230 check[1].t3 a_2993_5674# VSS.t229 sky130_fd_pr__nfet_01v8 ad=0.109 pd=1.36 as=0.0786 ps=0.805 w=0.42 l=0.15
X84 VSS.t172 VDD.t744 a_8803_4112# VSS.t171 sky130_fd_pr__nfet_01v8 ad=0.0588 pd=0.7 as=0.12 ps=1.08 w=0.42 l=0.15
X85 VSS.t443 a_10776_4086# x39.Q_N VSS.t442 sky130_fd_pr__nfet_01v8 ad=0.097 pd=0.975 as=0.169 ps=1.82 w=0.65 l=0.15
X86 a_6291_3605# a_5844_3239# a_6198_3239# VSS.t573 sky130_fd_pr__nfet_01v8 ad=0.0684 pd=0.74 as=0.066 ps=0.745 w=0.36 l=0.15
X87 x75.Q_N a_4854_3213# VDD.t46 VDD.t45 sky130_fd_pr__pfet_01v8_hvt ad=0.26 pd=2.52 as=0.154 ps=1.34 w=1 l=0.15
X88 VSS.t415 x5.X.t8 a_8237_4801# VSS.t414 sky130_fd_pr__nfet_01v8 ad=0.0567 pd=0.69 as=0.109 ps=1.36 w=0.42 l=0.15
X89 VSS.t473 a_6465_3213# a_6399_3239# VSS.t472 sky130_fd_pr__nfet_01v8 ad=0.084 pd=0.82 as=0.0671 ps=0.75 w=0.42 l=0.15
X90 a_1822_4801# a_1976_4775# a_1682_4775# VSS.t507 sky130_fd_pr__nfet_01v8 ad=0.166 pd=1.8 as=0.0864 ps=0.91 w=0.64 l=0.15
X91 VDD.t496 a_10775_2340# x63.Q_N VDD.t495 sky130_fd_pr__pfet_01v8_hvt ad=0.154 pd=1.34 as=0.26 ps=2.52 w=1 l=0.15
X92 a_9102_5083# a_8684_5167# a_8858_4775# VDD.t351 sky130_fd_pr__pfet_01v8_hvt ad=0.113 pd=1.11 as=0.147 ps=1.23 w=0.84 l=0.15
X93 a_11856_3239# a_10628_3239# a_11714_3521# VDD.t253 sky130_fd_pr__pfet_01v8_hvt ad=0.0567 pd=0.69 as=0.174 ps=1.41 w=0.42 l=0.15
X94 a_4681_4801# a_3453_4801# a_4539_5083# VDD.t303 sky130_fd_pr__pfet_01v8_hvt ad=0.0567 pd=0.69 as=0.174 ps=1.41 w=0.42 l=0.15
X95 VDD.t104 a_4855_4775# a_4767_5167# VDD.t103 sky130_fd_pr__pfet_01v8_hvt ad=0.0819 pd=0.81 as=0.0924 ps=0.86 w=0.42 l=0.15
X96 a_9953_2366# a_9441_2340# VSS.t39 VSS.t38 sky130_fd_pr__nfet_01v8 ad=0.0671 pd=0.75 as=0.084 ps=0.82 w=0.42 l=0.15
X97 check[3].t1 a_12738_4801# VSS.t437 VSS.t436 sky130_fd_pr__nfet_01v8 ad=0.169 pd=1.82 as=0.097 ps=0.975 w=0.65 l=0.15
X98 a_11769_4112# a_11629_4386# a_11331_4086# VSS.t476 sky130_fd_pr__nfet_01v8 ad=0.0935 pd=0.965 as=0.0711 ps=0.755 w=0.36 l=0.15
X99 a_1112_2340# a_1207_2340# VSS.t556 VSS.t555 sky130_fd_pr__nfet_01v8 ad=0.109 pd=1.36 as=0.097 ps=0.975 w=0.42 l=0.15
X100 x7.X a_929_3238# VSS.t663 VSS.t662 sky130_fd_pr__nfet_01v8 ad=0.0878 pd=0.92 as=0.0878 ps=0.92 w=0.65 l=0.15
X101 a_2579_4801# x4.X.t37 VSS.t435 VSS.t434 sky130_fd_pr__nfet_01v8 ad=0.12 pd=1.08 as=0.0588 ps=0.7 w=0.42 l=0.15
X102 a_4155_4086# a_4453_4386# a_4389_4478# VDD.t436 sky130_fd_pr__pfet_01v8_hvt ad=0.0567 pd=0.69 as=0.0924 ps=0.86 w=0.42 l=0.15
X103 a_7480_3521# a_7072_3239# a_7246_3213# VDD.t659 sky130_fd_pr__pfet_01v8_hvt ad=0.0882 pd=1.05 as=0.123 ps=1.17 w=0.84 l=0.15
X104 VSS.t170 VDD.t745 a_9578_4112# VSS.t169 sky130_fd_pr__nfet_01v8 ad=0.084 pd=0.82 as=0.101 ps=0.99 w=0.42 l=0.15
X105 a_5992_4086# a_6305_4112# a_6411_4112# VSS.t120 sky130_fd_pr__nfet_01v8 ad=0.0864 pd=0.91 as=0.166 ps=1.8 w=0.64 l=0.15
X106 VDD.t658 x7.X a_12547_2366# VDD.t657 sky130_fd_pr__pfet_01v8_hvt ad=0.109 pd=1.36 as=0.0662 ps=0.735 w=0.42 l=0.15
X107 a_6199_4801# check[6].t2 VSS.t78 VSS.t77 sky130_fd_pr__nfet_01v8 ad=0.066 pd=0.745 as=0.109 ps=1.36 w=0.42 l=0.15
X108 a_7182_4801# a_5845_4801# a_7073_4801# VSS.t687 sky130_fd_pr__nfet_01v8 ad=0.066 pd=0.745 as=0.0711 ps=0.755 w=0.36 l=0.15
X109 VSS.t168 VDD.t746 a_6411_4112# VSS.t167 sky130_fd_pr__nfet_01v8 ad=0.0588 pd=0.7 as=0.12 ps=1.08 w=0.42 l=0.15
X110 VDD.t456 x4.X.t38 a_6759_3213# VDD.t455 sky130_fd_pr__pfet_01v8_hvt ad=0.154 pd=1.34 as=0.166 ps=1.8 w=0.64 l=0.15
X111 x33.Q_N a_9639_4775# VSS.t311 VSS.t310 sky130_fd_pr__nfet_01v8 ad=0.169 pd=1.82 as=0.097 ps=0.975 w=0.65 l=0.15
X112 VSS.t358 x27.Q_N a_4793_2366# VSS.t357 sky130_fd_pr__nfet_01v8 ad=0.084 pd=0.82 as=0.101 ps=0.99 w=0.42 l=0.15
X113 a_3899_3605# a_3452_3239# a_3806_3239# VSS.t378 sky130_fd_pr__nfet_01v8 ad=0.0684 pd=0.74 as=0.066 ps=0.745 w=0.36 l=0.15
X114 VSS.t417 x5.X.t9 a_5845_4801# VSS.t416 sky130_fd_pr__nfet_01v8 ad=0.0567 pd=0.69 as=0.109 ps=1.36 w=0.42 l=0.15
X115 D[1].t0 a_10345_3239# VDD.t665 VDD.t664 sky130_fd_pr__pfet_01v8_hvt ad=0.26 pd=2.52 as=0.149 ps=1.33 w=1 l=0.15
X116 a_6710_5083# a_6292_5167# a_6466_4775# VDD.t676 sky130_fd_pr__pfet_01v8_hvt ad=0.113 pd=1.11 as=0.147 ps=1.23 w=0.84 l=0.15
X117 a_11195_4112# a_11331_4086# a_10776_4086# VSS.t240 sky130_fd_pr__nfet_01v8 ad=0.12 pd=1.08 as=0.0864 ps=0.91 w=0.64 l=0.15
X118 a_6375_3605# a_5844_3239# a_6291_3605# VDD.t610 sky130_fd_pr__pfet_01v8_hvt ad=0.0945 pd=0.87 as=0.0567 ps=0.69 w=0.42 l=0.15
X119 a_2969_6040# a_2853_5648# a_2883_5674# VDD.t698 sky130_fd_pr__pfet_01v8_hvt ad=0.138 pd=1.16 as=0.0567 ps=0.69 w=0.42 l=0.15
X120 a_8288_2340# a_8383_2340# VDD.t730 VDD.t729 sky130_fd_pr__pfet_01v8_hvt ad=0.166 pd=1.8 as=0.149 ps=1.33 w=0.64 l=0.15
X121 a_10795_4801# a_10629_4801# VSS.t266 VSS.t265 sky130_fd_pr__nfet_01v8 ad=0.109 pd=1.36 as=0.0567 ps=0.69 w=0.42 l=0.15
X122 a_7050_4086# a_6305_4112# a_7186_4112# VSS.t119 sky130_fd_pr__nfet_01v8 ad=0.0864 pd=0.91 as=0.166 ps=1.8 w=0.64 l=0.15
X123 a_11965_3239# a_10628_3239# a_11856_3239# VSS.t236 sky130_fd_pr__nfet_01v8 ad=0.066 pd=0.745 as=0.0711 ps=0.755 w=0.36 l=0.15
X124 a_12102_4296# a_11629_4386# a_12346_4112# VSS.t475 sky130_fd_pr__nfet_01v8 ad=0.0684 pd=0.74 as=0.0671 ps=0.75 w=0.36 l=0.15
X125 VSS.t209 a_2463_4775# a_3170_4801# VSS.t208 sky130_fd_pr__nfet_01v8 ad=0.097 pd=0.975 as=0.109 ps=1.36 w=0.42 l=0.15
X126 a_11970_4112# a_12102_4296# a_11834_4086# VSS.t497 sky130_fd_pr__nfet_01v8 ad=0.101 pd=0.99 as=0.0864 ps=0.91 w=0.64 l=0.15
X127 VDD.t126 a_3505_4086# x48.Q VDD.t125 sky130_fd_pr__pfet_01v8_hvt ad=0.149 pd=1.33 as=0.26 ps=2.52 w=1 l=0.15
X128 a_8590_3239# x7.X VDD.t656 VDD.t655 sky130_fd_pr__pfet_01v8_hvt ad=0.0662 pd=0.735 as=0.109 ps=1.36 w=0.42 l=0.15
X129 VDD.t579 VSS.t692 a_3452_3239# VDD.t578 sky130_fd_pr__pfet_01v8_hvt ad=0.0864 pd=0.91 as=0.166 ps=1.8 w=0.64 l=0.15
X130 x4.X.t13 a_1511_4112# VDD.t379 VDD.t378 sky130_fd_pr__pfet_01v8_hvt ad=0.135 pd=1.27 as=0.135 ps=1.27 w=1 l=0.15
X131 a_4113_4394# a_3913_4112# VDD.t240 VDD.t239 sky130_fd_pr__pfet_01v8_hvt ad=0.0882 pd=1.05 as=0.218 ps=2.2 w=0.84 l=0.15
X132 VSS.t364 a_11834_4086# a_11769_4112# VSS.t363 sky130_fd_pr__nfet_01v8 ad=0.166 pd=1.8 as=0.0935 ps=0.965 w=0.64 l=0.15
X133 a_3807_4801# x27.D VSS.t579 VSS.t578 sky130_fd_pr__nfet_01v8 ad=0.066 pd=0.745 as=0.109 ps=1.36 w=0.42 l=0.15
X134 a_4790_4801# a_3453_4801# a_4681_4801# VSS.t278 sky130_fd_pr__nfet_01v8 ad=0.066 pd=0.745 as=0.0711 ps=0.755 w=0.36 l=0.15
X135 VSS.t114 x20.Q_N a_2401_2366# VSS.t113 sky130_fd_pr__nfet_01v8 ad=0.084 pd=0.82 as=0.101 ps=0.99 w=0.42 l=0.15
X136 VDD.t716 a_929_3238# x7.X VDD.t715 sky130_fd_pr__pfet_01v8_hvt ad=0.26 pd=2.52 as=0.135 ps=1.27 w=1 l=0.15
X137 a_1511_4112# x4.A VSS.t538 VSS.t537 sky130_fd_pr__nfet_01v8 ad=0.0878 pd=0.92 as=0.0878 ps=0.92 w=0.65 l=0.15
X138 a_11564_2366# a_10775_2340# VSS.t469 VSS.t468 sky130_fd_pr__nfet_01v8 ad=0.066 pd=0.745 as=0.0588 ps=0.7 w=0.42 l=0.15
X139 a_7763_2366# a_6844_2640# a_7317_2550# VDD.t88 sky130_fd_pr__pfet_01v8_hvt ad=0.0662 pd=0.735 as=0.0567 ps=0.69 w=0.42 l=0.15
X140 a_11714_3521# a_11249_3213# VDD.t344 VDD.t343 sky130_fd_pr__pfet_01v8_hvt ad=0.174 pd=1.41 as=0.225 ps=1.38 w=0.84 l=0.15
X141 a_11857_4801# a_10629_4801# a_11715_5083# VDD.t287 sky130_fd_pr__pfet_01v8_hvt ad=0.0567 pd=0.69 as=0.174 ps=1.41 w=0.42 l=0.15
X142 x4.A a_897_4112# VDD.t601 VDD.t600 sky130_fd_pr__pfet_01v8_hvt ad=0.135 pd=1.27 as=0.135 ps=1.27 w=1 l=0.15
X143 a_6292_5167# a_5845_4801# a_6199_4801# VSS.t686 sky130_fd_pr__nfet_01v8 ad=0.0684 pd=0.74 as=0.066 ps=0.745 w=0.36 l=0.15
X144 VDD.t589 a_1207_2340# x51.Q_N VDD.t588 sky130_fd_pr__pfet_01v8_hvt ad=0.154 pd=1.34 as=0.26 ps=2.52 w=1 l=0.15
X145 a_3983_3605# a_3452_3239# a_3899_3605# VDD.t400 sky130_fd_pr__pfet_01v8_hvt ad=0.0945 pd=0.87 as=0.0567 ps=0.69 w=0.42 l=0.15
X146 a_2389_5648# a_3258_5648# a_2883_5674# VSS.t226 sky130_fd_pr__nfet_01v8 ad=0.0578 pd=0.695 as=0.109 ps=1.36 w=0.42 l=0.15
X147 a_5896_2340# a_5991_2340# VDD.t234 VDD.t233 sky130_fd_pr__pfet_01v8_hvt ad=0.166 pd=1.8 as=0.149 ps=1.33 w=0.64 l=0.15
X148 VSS.t300 a_6466_4775# a_6400_4801# VSS.t299 sky130_fd_pr__nfet_01v8 ad=0.084 pd=0.82 as=0.0671 ps=0.75 w=0.42 l=0.15
X149 a_4658_4086# a_3913_4112# a_4794_4112# VSS.t219 sky130_fd_pr__nfet_01v8 ad=0.0864 pd=0.91 as=0.166 ps=1.8 w=0.64 l=0.15
X150 VDD.t228 a_2463_4775# a_3170_4801# VDD.t227 sky130_fd_pr__pfet_01v8_hvt ad=0.149 pd=1.33 as=0.166 ps=1.8 w=0.64 l=0.15
X151 a_7481_5083# a_7073_4801# a_7247_4775# VDD.t635 sky130_fd_pr__pfet_01v8_hvt ad=0.0882 pd=1.05 as=0.123 ps=1.17 w=0.84 l=0.15
X152 a_9237_2340# D[3].t2 VDD.t214 VDD.t213 sky130_fd_pr__pfet_01v8_hvt ad=0.166 pd=1.8 as=0.0864 ps=0.91 w=0.64 l=0.15
X153 VDD.t236 reset.t0 a_621_4112# VDD.t235 sky130_fd_pr__pfet_01v8_hvt ad=0.115 pd=1.08 as=0.205 ps=2.1 w=0.79 l=0.15
X154 a_9173_4112# a_8384_4086# VSS.t25 VSS.t24 sky130_fd_pr__nfet_01v8 ad=0.066 pd=0.745 as=0.0588 ps=0.7 w=0.42 l=0.15
X155 VDD.t654 x7.X a_2979_2366# VDD.t653 sky130_fd_pr__pfet_01v8_hvt ad=0.109 pd=1.36 as=0.0662 ps=0.735 w=0.42 l=0.15
X156 VDD.t474 a_11833_2340# a_11766_2732# VDD.t473 sky130_fd_pr__pfet_01v8_hvt ad=0.225 pd=1.38 as=0.174 ps=1.41 w=0.84 l=0.15
X157 VSS.t543 VSS.t541 a_3452_3239# VSS.t542 sky130_fd_pr__nfet_01v8 ad=0.0567 pd=0.69 as=0.109 ps=1.36 w=0.42 l=0.15
X158 VDD.t276 a_9442_4086# a_9375_4478# VDD.t275 sky130_fd_pr__pfet_01v8_hvt ad=0.225 pd=1.38 as=0.174 ps=1.41 w=0.84 l=0.15
X159 VDD.t630 x30.Q_N a_7049_2340# VDD.t629 sky130_fd_pr__pfet_01v8_hvt ad=0.0798 pd=0.8 as=0.147 ps=1.23 w=0.42 l=0.15
X160 a_4317_3521# a_3899_3605# a_4073_3213# VDD.t624 sky130_fd_pr__pfet_01v8_hvt ad=0.113 pd=1.11 as=0.147 ps=1.23 w=0.84 l=0.15
X161 a_6376_5167# a_5845_4801# a_6292_5167# VDD.t737 sky130_fd_pr__pfet_01v8_hvt ad=0.0945 pd=0.87 as=0.0567 ps=0.69 w=0.42 l=0.15
X162 a_3900_5167# a_3453_4801# a_3807_4801# VSS.t277 sky130_fd_pr__nfet_01v8 ad=0.0684 pd=0.74 as=0.066 ps=0.745 w=0.36 l=0.15
X163 VSS.t679 a_8383_2340# x60.Q_N VSS.t678 sky130_fd_pr__nfet_01v8 ad=0.097 pd=0.975 as=0.169 ps=1.82 w=0.65 l=0.15
X164 a_11249_3213# x39.Q_N VDD.t84 VDD.t83 sky130_fd_pr__pfet_01v8_hvt ad=0.147 pd=1.23 as=0.0798 ps=0.8 w=0.42 l=0.15
X165 x7.X a_929_3238# VSS.t661 VSS.t660 sky130_fd_pr__nfet_01v8 ad=0.0878 pd=0.92 as=0.0878 ps=0.92 w=0.65 l=0.15
X166 a_1227_4801# a_1061_4801# VSS.t482 VSS.t481 sky130_fd_pr__nfet_01v8 ad=0.109 pd=1.36 as=0.0567 ps=0.69 w=0.42 l=0.15
X167 a_4074_4775# VDD.t178 VDD.t180 VDD.t179 sky130_fd_pr__pfet_01v8_hvt ad=0.147 pd=1.23 as=0.0798 ps=0.8 w=0.42 l=0.15
X168 a_8997_3239# x42.Q_N VSS.t490 VSS.t489 sky130_fd_pr__nfet_01v8 ad=0.101 pd=0.99 as=0.084 ps=0.82 w=0.42 l=0.15
X169 a_8591_4801# check[5].t3 VDD.t674 VDD.t673 sky130_fd_pr__pfet_01v8_hvt ad=0.0662 pd=0.735 as=0.109 ps=1.36 w=0.42 l=0.15
X170 a_11289_4394# a_11089_4112# VDD.t278 VDD.t277 sky130_fd_pr__pfet_01v8_hvt ad=0.0882 pd=1.05 as=0.218 ps=2.2 w=0.84 l=0.15
X171 a_1511_4112# x4.A VDD.t577 VDD.t576 sky130_fd_pr__pfet_01v8_hvt ad=0.135 pd=1.27 as=0.26 ps=2.52 w=1 l=0.15
X172 x4.X.t30 a_1511_4112# VSS.t354 VSS.t353 sky130_fd_pr__nfet_01v8 ad=0.0878 pd=0.92 as=0.0878 ps=0.92 w=0.65 l=0.15
X173 x75.Q a_5561_3239# VDD.t59 VDD.t58 sky130_fd_pr__pfet_01v8_hvt ad=0.26 pd=2.52 as=0.149 ps=1.33 w=1 l=0.15
X174 a_11966_4801# a_10629_4801# a_11857_4801# VSS.t264 sky130_fd_pr__nfet_01v8 ad=0.066 pd=0.745 as=0.0711 ps=0.755 w=0.36 l=0.15
X175 a_9376_2366# a_9236_2640# a_8938_2340# VSS.t304 sky130_fd_pr__nfet_01v8 ad=0.0935 pd=0.965 as=0.0711 ps=0.755 w=0.36 l=0.15
X176 eob.t5 a_2389_5648# VSS.t395 VSS.t394 sky130_fd_pr__nfet_01v8 ad=0.0878 pd=0.92 as=0.114 ps=1 w=0.65 l=0.15
X177 a_6781_4112# a_5992_4086# VSS.t411 VSS.t410 sky130_fd_pr__nfet_01v8 ad=0.066 pd=0.745 as=0.0588 ps=0.7 w=0.42 l=0.15
X178 x77.Y eob.t8 VDD.t63 VDD.t62 sky130_fd_pr__pfet_01v8_hvt ad=0.26 pd=2.52 as=0.26 ps=2.52 w=1 l=0.15
X179 x5.X.t7 a_1338_5674# VSS.t183 VSS.t182 sky130_fd_pr__nfet_01v8 ad=0.0878 pd=0.92 as=0.0878 ps=0.92 w=0.65 l=0.15
X180 a_9237_2340# D[3].t3 VSS.t195 VSS.t194 sky130_fd_pr__nfet_01v8 ad=0.109 pd=1.36 as=0.0567 ps=0.69 w=0.42 l=0.15
X181 a_11715_5083# a_11250_4775# VDD.t541 VDD.t540 sky130_fd_pr__pfet_01v8_hvt ad=0.174 pd=1.41 as=0.225 ps=1.38 w=0.84 l=0.15
X182 x27.Q_N a_4855_4775# VDD.t102 VDD.t101 sky130_fd_pr__pfet_01v8_hvt ad=0.26 pd=2.52 as=0.154 ps=1.34 w=1 l=0.15
X183 a_3984_5167# a_3453_4801# a_3900_5167# VDD.t302 sky130_fd_pr__pfet_01v8_hvt ad=0.0945 pd=0.87 as=0.0567 ps=0.69 w=0.42 l=0.15
X184 a_8791_3239# a_8402_3239# a_8683_3605# VSS.t647 sky130_fd_pr__nfet_01v8 ad=0.0671 pd=0.75 as=0.0684 ps=0.74 w=0.36 l=0.15
X185 a_11089_4112# x4.X.t39 VSS.t429 VSS.t428 sky130_fd_pr__nfet_01v8 ad=0.109 pd=1.36 as=0.097 ps=0.975 w=0.42 l=0.15
X186 a_5991_2340# a_6546_2340# a_6504_2648# VDD.t397 sky130_fd_pr__pfet_01v8_hvt ad=0.123 pd=1.17 as=0.0882 ps=1.05 w=0.84 l=0.15
X187 a_11075_3605# a_10794_3239# a_10982_3239# VDD.t521 sky130_fd_pr__pfet_01v8_hvt ad=0.0567 pd=0.69 as=0.0662 ps=0.735 w=0.42 l=0.15
X188 VDD.t428 check[0].t3 a_5372_4112# VDD.t427 sky130_fd_pr__pfet_01v8_hvt ad=0.109 pd=1.36 as=0.0662 ps=0.735 w=0.42 l=0.15
X189 VDD.t307 a_11629_2340# a_11628_2640# VDD.t306 sky130_fd_pr__pfet_01v8_hvt ad=0.0864 pd=0.91 as=0.166 ps=1.8 w=0.64 l=0.15
X190 a_9638_3213# a_9464_3239# a_9754_3239# VSS.t294 sky130_fd_pr__nfet_01v8 ad=0.0864 pd=0.91 as=0.12 ps=1.08 w=0.64 l=0.15
X191 a_5088_3521# a_4680_3239# a_4854_3213# VDD.t740 sky130_fd_pr__pfet_01v8_hvt ad=0.0882 pd=1.05 as=0.123 ps=1.17 w=0.84 l=0.15
X192 x4.X.t12 a_1511_4112# VDD.t377 VDD.t376 sky130_fd_pr__pfet_01v8_hvt ad=0.135 pd=1.27 as=0.135 ps=1.27 w=1 l=0.15
X193 VDD.t177 VDD.t175 a_9442_4086# VDD.t176 sky130_fd_pr__pfet_01v8_hvt ad=0.0798 pd=0.8 as=0.147 ps=1.23 w=0.42 l=0.15
X194 a_6984_2366# a_6844_2640# a_6546_2340# VSS.t98 sky130_fd_pr__nfet_01v8 ad=0.0935 pd=0.965 as=0.0711 ps=0.755 w=0.36 l=0.15
X195 VDD.t450 x4.X.t40 a_4367_3213# VDD.t449 sky130_fd_pr__pfet_01v8_hvt ad=0.154 pd=1.34 as=0.166 ps=1.8 w=0.64 l=0.15
X196 VDD.t714 a_929_3238# x7.X VDD.t713 sky130_fd_pr__pfet_01v8_hvt ad=0.135 pd=1.27 as=0.135 ps=1.27 w=1 l=0.15
X197 a_7318_4296# a_6846_4086# a_7562_4478# VDD.t680 sky130_fd_pr__pfet_01v8_hvt ad=0.0567 pd=0.69 as=0.0945 ps=0.87 w=0.42 l=0.15
X198 VSS.t37 a_9441_2340# a_9376_2366# VSS.t36 sky130_fd_pr__nfet_01v8 ad=0.166 pd=1.8 as=0.0935 ps=0.965 w=0.64 l=0.15
X199 a_4318_5083# a_3900_5167# a_4074_4775# VDD.t37 sky130_fd_pr__pfet_01v8_hvt ad=0.113 pd=1.11 as=0.147 ps=1.23 w=0.84 l=0.15
X200 check[4].t0 a_10346_4801# VDD.t242 VDD.t241 sky130_fd_pr__pfet_01v8_hvt ad=0.26 pd=2.52 as=0.149 ps=1.33 w=1 l=0.15
X201 VDD.t375 a_1511_4112# x4.X.t11 VDD.t374 sky130_fd_pr__pfet_01v8_hvt ad=0.135 pd=1.27 as=0.135 ps=1.27 w=1 l=0.15
X202 a_12548_4112# a_11629_4386# a_12102_4296# VDD.t503 sky130_fd_pr__pfet_01v8_hvt ad=0.0662 pd=0.735 as=0.0567 ps=0.69 w=0.42 l=0.15
X203 a_12101_2550# a_11629_2340# a_12345_2732# VDD.t305 sky130_fd_pr__pfet_01v8_hvt ad=0.0567 pd=0.69 as=0.0945 ps=0.87 w=0.42 l=0.15
X204 VSS.t64 x5.X.t10 a_3453_4801# VSS.t63 sky130_fd_pr__nfet_01v8 ad=0.0567 pd=0.69 as=0.109 ps=1.36 w=0.42 l=0.15
X205 a_11250_4775# VDD.t172 VDD.t174 VDD.t173 sky130_fd_pr__pfet_01v8_hvt ad=0.147 pd=1.23 as=0.0798 ps=0.8 w=0.42 l=0.15
X206 a_4453_2340# D[5].t2 VDD.t410 VDD.t409 sky130_fd_pr__pfet_01v8_hvt ad=0.166 pd=1.8 as=0.0864 ps=0.91 w=0.64 l=0.15
X207 a_3373_5674# a_3258_5648# a_2389_5648# VDD.t247 sky130_fd_pr__pfet_01v8_hvt ad=0.14 pd=1.6 as=0.0729 ps=0.81 w=0.54 l=0.15
X208 VSS.t17 x4.X.t41 a_6759_3213# VSS.t16 sky130_fd_pr__nfet_01v8 ad=0.097 pd=0.975 as=0.109 ps=1.36 w=0.42 l=0.15
X209 VSS.t217 reset.t1 a_621_4112# VSS.t216 sky130_fd_pr__nfet_01v8 ad=0.0754 pd=0.81 as=0.135 ps=1.56 w=0.52 l=0.15
X210 a_1762_2340# a_2061_2340# a_1996_2366# VSS.t505 sky130_fd_pr__nfet_01v8 ad=0.0711 pd=0.755 as=0.066 ps=0.745 w=0.36 l=0.15
X211 a_9550_3605# a_8402_3239# a_9464_3239# VDD.t700 sky130_fd_pr__pfet_01v8_hvt ad=0.0924 pd=0.86 as=0.0567 ps=0.69 w=0.42 l=0.15
X212 a_8998_4801# VDD.t747 VSS.t166 VSS.t165 sky130_fd_pr__nfet_01v8 ad=0.101 pd=0.99 as=0.084 ps=0.82 w=0.42 l=0.15
X213 x4.X.t29 a_1511_4112# VSS.t352 VSS.t351 sky130_fd_pr__nfet_01v8 ad=0.0878 pd=0.92 as=0.0878 ps=0.92 w=0.65 l=0.15
X214 a_7049_2340# a_7317_2550# a_7263_2648# VDD.t314 sky130_fd_pr__pfet_01v8_hvt ad=0.147 pd=1.23 as=0.113 ps=1.11 w=0.84 l=0.15
X215 a_6198_3239# x7.X VDD.t652 VDD.t651 sky130_fd_pr__pfet_01v8_hvt ad=0.0662 pd=0.735 as=0.109 ps=1.36 w=0.42 l=0.15
X216 VSS.t617 x7.X a_7763_2366# VSS.t616 sky130_fd_pr__nfet_01v8 ad=0.109 pd=1.36 as=0.066 ps=0.745 w=0.42 l=0.15
X217 a_2398_4801# a_1061_4801# a_2289_4801# VSS.t480 sky130_fd_pr__nfet_01v8 ad=0.066 pd=0.745 as=0.0711 ps=0.755 w=0.36 l=0.15
X218 VSS.t282 a_11629_2340# a_11628_2640# VSS.t281 sky130_fd_pr__nfet_01v8 ad=0.0567 pd=0.69 as=0.109 ps=1.36 w=0.42 l=0.15
X219 VDD.t622 a_6759_3213# a_7480_3521# VDD.t621 sky130_fd_pr__pfet_01v8_hvt ad=0.218 pd=2.2 as=0.0882 ps=1.05 w=0.84 l=0.15
X220 a_3877_5674# a_2853_5648# a_3373_5674# VSS.t644 sky130_fd_pr__nfet_01v8 ad=0.066 pd=0.745 as=0.072 ps=0.76 w=0.36 l=0.15
X221 a_9656_4394# a_8697_4112# VDD.t440 VDD.t439 sky130_fd_pr__pfet_01v8_hvt ad=0.113 pd=1.11 as=0.225 ps=1.38 w=0.84 l=0.15
X222 a_7185_2366# a_7317_2550# a_7049_2340# VSS.t287 sky130_fd_pr__nfet_01v8 ad=0.101 pd=0.99 as=0.0864 ps=0.91 w=0.64 l=0.15
X223 a_10155_2366# a_9237_2340# a_9709_2550# VSS.t501 sky130_fd_pr__nfet_01v8 ad=0.066 pd=0.745 as=0.0684 ps=0.74 w=0.36 l=0.15
X224 a_1926_5083# a_1508_5167# a_1682_4775# VDD.t98 sky130_fd_pr__pfet_01v8_hvt ad=0.113 pd=1.11 as=0.147 ps=1.23 w=0.84 l=0.15
X225 a_9370_4801# a_8858_4775# VSS.t455 VSS.t454 sky130_fd_pr__nfet_01v8 ad=0.0935 pd=0.965 as=0.166 ps=1.8 w=0.64 l=0.15
X226 VDD.t171 VDD.t169 a_11834_4086# VDD.t170 sky130_fd_pr__pfet_01v8_hvt ad=0.0798 pd=0.8 as=0.147 ps=1.23 w=0.42 l=0.15
X227 a_3504_2340# a_3599_2340# VDD.t34 VDD.t33 sky130_fd_pr__pfet_01v8_hvt ad=0.166 pd=1.8 as=0.149 ps=1.33 w=0.64 l=0.15
X228 a_11076_5167# a_10795_4801# a_10983_4801# VDD.t124 sky130_fd_pr__pfet_01v8_hvt ad=0.0567 pd=0.69 as=0.0662 ps=0.735 w=0.42 l=0.15
X229 a_8792_4801# a_8403_4801# a_8684_5167# VSS.t462 sky130_fd_pr__nfet_01v8 ad=0.0671 pd=0.75 as=0.0684 ps=0.74 w=0.36 l=0.15
X230 a_5089_5083# a_4681_4801# a_4855_4775# VDD.t256 sky130_fd_pr__pfet_01v8_hvt ad=0.0882 pd=1.05 as=0.123 ps=1.17 w=0.84 l=0.15
X231 x4.X.t28 a_1511_4112# VSS.t350 VSS.t349 sky130_fd_pr__nfet_01v8 ad=0.0878 pd=0.92 as=0.0878 ps=0.92 w=0.65 l=0.15
X232 VDD.t532 a_2061_2340# a_2060_2640# VDD.t531 sky130_fd_pr__pfet_01v8_hvt ad=0.0864 pd=0.91 as=0.166 ps=1.8 w=0.64 l=0.15
X233 a_3671_5674# x48.Q VSS.t284 VSS.t283 sky130_fd_pr__nfet_01v8 ad=0.0671 pd=0.75 as=0.0819 ps=0.81 w=0.42 l=0.15
X234 a_4453_2340# D[5].t3 VSS.t387 VSS.t386 sky130_fd_pr__nfet_01v8 ad=0.109 pd=1.36 as=0.0567 ps=0.69 w=0.42 l=0.15
X235 a_4657_2340# a_4925_2550# a_4871_2648# VDD.t484 sky130_fd_pr__pfet_01v8_hvt ad=0.147 pd=1.23 as=0.113 ps=1.11 w=0.84 l=0.15
X236 a_3806_3239# VSS.t693 VDD.t581 VDD.t580 sky130_fd_pr__pfet_01v8_hvt ad=0.0662 pd=0.735 as=0.109 ps=1.36 w=0.42 l=0.15
X237 x5.X.t6 a_1338_5674# VSS.t181 VSS.t180 sky130_fd_pr__nfet_01v8 ad=0.0878 pd=0.92 as=0.0878 ps=0.92 w=0.65 l=0.15
X238 a_9639_4775# a_9465_4801# a_9755_4801# VSS.t599 sky130_fd_pr__nfet_01v8 ad=0.0864 pd=0.91 as=0.12 ps=1.08 w=0.64 l=0.15
X239 VDD.t269 a_12030_3213# a_12737_3239# VDD.t268 sky130_fd_pr__pfet_01v8_hvt ad=0.149 pd=1.33 as=0.166 ps=1.8 w=0.64 l=0.15
X240 a_4970_3239# a_4367_3213# a_4854_3213# VSS.t600 sky130_fd_pr__nfet_01v8 ad=0.166 pd=1.8 as=0.0864 ps=0.91 w=0.64 l=0.15
X241 a_8857_3213# a_8683_3605# a_8997_3239# VSS.t13 sky130_fd_pr__nfet_01v8 ad=0.0864 pd=0.91 as=0.101 ps=0.99 w=0.64 l=0.15